<?xml version="1.0" encoding="UTF-8"?>
<additional xmlns:xsi="http://www.w3.org/2001/XMLSchema-instance" xsi:noNamespaceSchemaLocation="http://sumo.dlr.de/xsd/additional_file.xsd">
    <!-- Generated for CARLA Town05 with UTM projection -->
    <poly id="building_0" type="building" color="1.00,0.00,0.00" fill="1" layer="4" shape="151.65,15.20 145.15,15.20 145.15,-14.80 151.65,-14.80"/>
    <poly id="building_1" type="building" color="1.00,0.00,0.00" fill="1" layer="4" shape="-1.09,-0.02 1.09,-0.02 1.09,1.11 -1.09,1.11"/>
    <poly id="building_2" type="building" color="1.00,0.00,0.00" fill="1" layer="4" shape="-2.23,0.00 2.23,0.00 2.23,1.95 -2.23,1.95"/>
    <poly id="building_3" type="building" color="1.00,0.00,0.00" fill="1" layer="4" shape="-1.12,0.00 1.12,0.00 1.12,1.95 -1.12,1.95"/>
    <poly id="building_4" type="building" color="1.00,0.00,0.00" fill="1" layer="4" shape="-167.51,-202.61 -169.74,-202.61 -169.74,-203.58 -167.51,-203.58"/>
    <poly id="building_5" type="building" color="1.00,0.00,0.00" fill="1" layer="4" shape="-152.91,-202.61 -155.14,-202.61 -155.14,-203.58 -152.91,-203.58"/>
    <poly id="building_6" type="building" color="1.00,0.00,0.00" fill="1" layer="4" shape="-207.71,-202.61 -209.94,-202.61 -209.94,-203.58 -207.71,-203.58"/>
    <poly id="building_7" type="building" color="1.00,0.00,0.00" fill="1" layer="4" shape="-191.71,-202.61 -193.94,-202.61 -193.94,-203.58 -191.71,-203.58"/>
    <poly id="building_8" type="building" color="1.00,0.00,0.00" fill="1" layer="4" shape="-177.11,-202.61 -179.34,-202.61 -179.34,-203.58 -177.11,-203.58"/>
    <poly id="building_9" type="building" color="1.00,0.00,0.00" fill="1" layer="4" shape="-196.31,-202.61 -198.54,-202.61 -198.54,-203.58 -196.31,-203.58"/>
    <poly id="building_10" type="building" color="1.00,0.00,0.00" fill="1" layer="4" shape="-180.31,-202.61 -182.54,-202.61 -182.54,-203.58 -180.31,-203.58"/>
    <poly id="building_11" type="building" color="1.00,0.00,0.00" fill="1" layer="4" shape="-165.71,-202.61 -167.94,-202.61 -167.94,-203.58 -165.71,-203.58"/>
    <poly id="building_12" type="building" color="1.00,0.00,0.00" fill="1" layer="4" shape="-183.51,-202.61 -185.74,-202.61 -185.74,-203.58 -183.51,-203.58"/>
    <poly id="building_13" type="building" color="1.00,0.00,0.00" fill="1" layer="4" shape="-167.51,-202.61 -169.74,-202.61 -169.74,-203.58 -167.51,-203.58"/>
    <poly id="building_14" type="building" color="1.00,0.00,0.00" fill="1" layer="4" shape="-1.09,-0.02 1.09,-0.02 1.09,1.11 -1.09,1.11"/>
    <poly id="building_15" type="building" color="1.00,0.00,0.00" fill="1" layer="4" shape="-152.91,-202.61 -155.14,-202.61 -155.14,-203.58 -152.91,-203.58"/>
    <poly id="building_16" type="building" color="1.00,0.00,0.00" fill="1" layer="4" shape="-207.71,-202.61 -209.94,-202.61 -209.94,-203.58 -207.71,-203.58"/>
    <poly id="building_17" type="building" color="1.00,0.00,0.00" fill="1" layer="4" shape="-191.71,-202.61 -193.94,-202.61 -193.94,-203.58 -191.71,-203.58"/>
    <poly id="building_18" type="building" color="1.00,0.00,0.00" fill="1" layer="4" shape="-177.11,-202.61 -179.34,-202.61 -179.34,-203.58 -177.11,-203.58"/>
    <poly id="building_19" type="building" color="1.00,0.00,0.00" fill="1" layer="4" shape="-196.31,-202.61 -198.54,-202.61 -198.54,-203.58 -196.31,-203.58"/>
    <poly id="building_20" type="building" color="1.00,0.00,0.00" fill="1" layer="4" shape="-180.31,-202.61 -182.54,-202.61 -182.54,-203.58 -180.31,-203.58"/>
    <poly id="building_21" type="building" color="1.00,0.00,0.00" fill="1" layer="4" shape="-165.71,-202.61 -167.94,-202.61 -167.94,-203.58 -165.71,-203.58"/>
    <poly id="building_22" type="building" color="1.00,0.00,0.00" fill="1" layer="4" shape="-150.12,-54.64 -150.12,-66.60 -145.33,-66.60 -145.33,-54.64"/>
    <poly id="building_23" type="building" color="1.00,0.00,0.00" fill="1" layer="4" shape="-1.12,0.00 1.12,0.00 1.12,1.95 -1.12,1.95"/>
    <poly id="building_24" type="building" color="1.00,0.00,0.00" fill="1" layer="4" shape="-1.09,-0.02 1.09,-0.02 1.09,1.11 -1.09,1.11"/>
    <poly id="building_25" type="building" color="1.00,0.00,0.00" fill="1" layer="4" shape="32.72,-141.34 36.07,-141.34 36.07,-143.29 32.72,-143.29"/>
    <poly id="building_26" type="building" color="1.00,0.00,0.00" fill="1" layer="4" shape="25.91,-141.34 29.26,-141.34 29.26,-143.29 25.91,-143.29"/>
    <poly id="building_27" type="building" color="1.00,0.00,0.00" fill="1" layer="4" shape="-1.12,0.00 1.12,0.00 1.12,1.95 -1.12,1.95"/>
    <poly id="building_28" type="building" color="1.00,0.00,0.00" fill="1" layer="4" shape="-1.12,0.00 1.12,0.00 1.12,1.95 -1.12,1.95"/>
    <poly id="building_29" type="building" color="1.00,0.00,0.00" fill="1" layer="4" shape="-1.12,-0.00 1.12,0.00 1.12,1.95 -1.12,1.95"/>
    <poly id="building_30" type="building" color="1.00,0.00,0.00" fill="1" layer="4" shape="-1.12,-0.00 1.12,-0.00 1.12,1.95 -1.12,1.95"/>
    <poly id="building_31" type="building" color="1.00,0.00,0.00" fill="1" layer="4" shape="-1.09,-0.02 1.09,-0.02 1.09,1.11 -1.09,1.11"/>
    <poly id="building_32" type="building" color="1.00,0.00,0.00" fill="1" layer="4" shape="-6.19,-141.17 -3.96,-141.17 -3.96,-143.12 -6.19,-143.12"/>
    <poly id="building_33" type="building" color="1.00,0.00,0.00" fill="1" layer="4" shape="0.35,-141.17 2.58,-141.17 2.58,-143.12 0.35,-143.12"/>
    <poly id="building_34" type="building" color="1.00,0.00,0.00" fill="1" layer="4" shape="6.42,-141.17 8.65,-141.17 8.65,-143.12 6.42,-143.12"/>
    <poly id="building_35" type="building" color="1.00,0.00,0.00" fill="1" layer="4" shape="-1.12,0.00 1.12,0.00 1.12,1.95 -1.12,1.95"/>
    <poly id="building_36" type="building" color="1.00,0.00,0.00" fill="1" layer="4" shape="-1.12,-0.00 1.12,0.00 1.12,1.95 -1.12,1.95"/>
    <poly id="building_37" type="building" color="1.00,0.00,0.00" fill="1" layer="4" shape="-1.12,-0.00 1.12,-0.00 1.12,1.95 -1.12,1.95"/>
    <poly id="building_38" type="building" color="1.00,0.00,0.00" fill="1" layer="4" shape="-1.12,0.00 1.12,0.00 1.12,1.95 -1.12,1.95"/>
    <poly id="building_39" type="building" color="1.00,0.00,0.00" fill="1" layer="4" shape="-1.12,0.00 1.12,0.00 1.12,1.95 -1.12,1.95"/>
    <poly id="building_40" type="building" color="1.00,0.00,0.00" fill="1" layer="4" shape="-1.12,0.00 1.12,0.00 1.12,1.95 -1.12,1.95"/>
    <poly id="building_41" type="building" color="1.00,0.00,0.00" fill="1" layer="4" shape="-1.12,0.00 1.12,0.00 1.12,1.95 -1.12,1.95"/>
    <poly id="building_42" type="building" color="1.00,0.00,0.00" fill="1" layer="4" shape="-1.68,0.00 1.67,0.00 1.67,1.95 -1.68,1.95"/>
    <poly id="building_43" type="building" color="1.00,0.00,0.00" fill="1" layer="4" shape="-1.12,0.00 1.12,0.00 1.12,1.95 -1.12,1.95"/>
    <poly id="building_44" type="building" color="1.00,0.00,0.00" fill="1" layer="4" shape="-1.12,0.00 1.12,0.00 1.12,1.95 -1.12,1.95"/>
    <poly id="building_45" type="building" color="1.00,0.00,0.00" fill="1" layer="4" shape="-32.57,-122.55 -30.34,-122.55 -30.34,-124.50 -32.57,-124.50"/>
    <poly id="building_46" type="building" color="1.00,0.00,0.00" fill="1" layer="4" shape="-26.03,-122.55 -23.79,-122.55 -23.79,-124.50 -26.03,-124.50"/>
    <poly id="building_47" type="building" color="1.00,0.00,0.00" fill="1" layer="4" shape="-19.96,-122.55 -17.73,-122.55 -17.73,-124.50 -19.96,-124.50"/>
    <poly id="building_48" type="building" color="1.00,0.00,0.00" fill="1" layer="4" shape="-52.87,-122.55 -50.63,-122.55 -50.63,-124.50 -52.87,-124.50"/>
    <poly id="building_49" type="building" color="1.00,0.00,0.00" fill="1" layer="4" shape="-46.32,-122.55 -44.09,-122.55 -44.09,-124.50 -46.32,-124.50"/>
    <poly id="building_50" type="building" color="1.00,0.00,0.00" fill="1" layer="4" shape="-40.26,-122.55 -38.02,-122.55 -38.02,-124.50 -40.26,-124.50"/>
    <poly id="building_51" type="building" color="1.00,0.00,0.00" fill="1" layer="4" shape="-66.55,-122.55 -64.31,-122.55 -64.31,-124.50 -66.55,-124.50"/>
    <poly id="building_52" type="building" color="1.00,0.00,0.00" fill="1" layer="4" shape="-2.23,0.00 2.23,0.00 2.23,1.95 -2.23,1.95"/>
    <poly id="building_53" type="building" color="1.00,0.00,0.00" fill="1" layer="4" shape="-66.55,-141.27 -64.31,-141.27 -64.31,-143.22 -66.55,-143.22"/>
    <poly id="building_54" type="building" color="1.00,0.00,0.00" fill="1" layer="4" shape="-53.33,-141.27 -51.10,-141.27 -51.10,-143.22 -53.33,-143.22"/>
    <poly id="building_55" type="building" color="1.00,0.00,0.00" fill="1" layer="4" shape="-46.79,-141.27 -44.55,-141.27 -44.55,-143.22 -46.79,-143.22"/>
    <poly id="building_56" type="building" color="1.00,0.00,0.00" fill="1" layer="4" shape="-1.12,0.00 1.12,0.00 1.12,1.95 -1.12,1.95"/>
    <poly id="building_57" type="building" color="1.00,0.00,0.00" fill="1" layer="4" shape="-1.12,0.00 1.12,0.00 1.12,1.95 -1.12,1.95"/>
    <poly id="building_58" type="building" color="1.00,0.00,0.00" fill="1" layer="4" shape="-1.12,-0.00 1.12,0.00 1.12,1.95 -1.12,1.95"/>
    <poly id="building_59" type="building" color="1.00,0.00,0.00" fill="1" layer="4" shape="-1.12,0.00 1.12,0.00 1.12,1.95 -1.12,1.95"/>
    <poly id="building_60" type="building" color="1.00,0.00,0.00" fill="1" layer="4" shape="111.46,-7.02 111.46,-1.44 109.52,-1.44 109.52,-7.02"/>
    <poly id="building_61" type="building" color="1.00,0.00,0.00" fill="1" layer="4" shape="-2.23,0.00 2.23,0.00 2.23,1.95 -2.23,1.95"/>
    <poly id="building_62" type="building" color="1.00,0.00,0.00" fill="1" layer="4" shape="105.83,-12.65 105.83,-7.06 103.89,-7.06 103.89,-12.65"/>
    <poly id="building_63" type="building" color="1.00,0.00,0.00" fill="1" layer="4" shape="100.84,-17.09 100.84,-12.62 98.89,-12.62 98.89,-17.09"/>
    <poly id="building_64" type="building" color="1.00,0.00,0.00" fill="1" layer="4" shape="89.82,-28.11 89.82,-23.64 87.87,-23.64 87.87,-28.11"/>
    <poly id="building_65" type="building" color="1.00,0.00,0.00" fill="1" layer="4" shape="84.47,-34.01 84.47,-28.43 82.52,-28.43 82.52,-34.01"/>
    <poly id="building_66" type="building" color="1.00,0.00,0.00" fill="1" layer="4" shape="78.69,-39.79 78.69,-34.21 76.74,-34.21 76.74,-39.79"/>
    <poly id="building_67" type="building" color="1.00,0.00,0.00" fill="1" layer="4" shape="34.80,-78.52 34.80,-74.05 32.86,-74.05 32.86,-78.52"/>
    <poly id="building_68" type="building" color="1.00,0.00,0.00" fill="1" layer="4" shape="30.30,-83.02 30.30,-78.55 28.36,-78.55 28.36,-83.02"/>
    <poly id="building_69" type="building" color="1.00,0.00,0.00" fill="1" layer="4" shape="25.68,-87.65 25.68,-83.18 23.73,-83.18 23.73,-87.65"/>
    <poly id="building_70" type="building" color="1.00,0.00,0.00" fill="1" layer="4" shape="12.80,-100.53 12.80,-96.06 10.85,-96.06 10.85,-100.53"/>
    <poly id="building_71" type="building" color="1.00,0.00,0.00" fill="1" layer="4" shape="8.29,-105.03 8.29,-100.56 6.35,-100.56 6.35,-105.03"/>
    <poly id="building_72" type="building" color="1.00,0.00,0.00" fill="1" layer="4" shape="3.67,-109.65 3.67,-105.19 1.72,-105.19 1.72,-109.65"/>
    <poly id="building_73" type="building" color="1.00,0.00,0.00" fill="1" layer="4" shape="16.82,121.66 16.82,127.24 18.76,127.24 18.76,121.66"/>
    <poly id="building_74" type="building" color="1.00,0.00,0.00" fill="1" layer="4" shape="22.44,116.03 22.44,121.62 24.39,121.62 24.39,116.03"/>
    <poly id="building_75" type="building" color="1.00,0.00,0.00" fill="1" layer="4" shape="27.54,111.49 27.54,115.96 29.49,115.96 29.49,111.49"/>
    <poly id="building_76" type="building" color="1.00,0.00,0.00" fill="1" layer="4" shape="39.76,98.15 39.76,104.85 41.71,104.85 41.71,98.15"/>
    <poly id="building_77" type="building" color="1.00,0.00,0.00" fill="1" layer="4" shape="45.27,93.77 45.27,98.24 47.21,98.24 47.21,93.77"/>
    <poly id="building_78" type="building" color="1.00,0.00,0.00" fill="1" layer="4" shape="49.69,89.34 49.69,93.81 51.64,93.81 51.64,89.34"/>
    <poly id="building_79" type="building" color="1.00,0.00,0.00" fill="1" layer="4" shape="88.97,45.26 88.97,49.73 90.92,49.73 90.92,45.26"/>
    <poly id="building_80" type="building" color="1.00,0.00,0.00" fill="1" layer="4" shape="93.48,40.76 93.48,45.22 95.42,45.22 95.42,40.76"/>
    <poly id="building_81" type="building" color="1.00,0.00,0.00" fill="1" layer="4" shape="98.10,36.13 98.10,40.60 100.05,40.60 100.05,36.13"/>
    <poly id="building_82" type="building" color="1.00,0.00,0.00" fill="1" layer="4" shape="-192.11,-202.84 -196.58,-202.84 -196.58,-204.78 -192.11,-204.78"/>
    <poly id="building_83" type="building" color="1.00,0.00,0.00" fill="1" layer="4" shape="-183.51,-202.61 -185.74,-202.61 -185.74,-203.58 -183.51,-203.58"/>
    <poly id="building_84" type="building" color="1.00,0.00,0.00" fill="1" layer="4" shape="110.98,23.25 110.98,27.72 112.93,27.72 112.93,23.25"/>
    <poly id="building_85" type="building" color="1.00,0.00,0.00" fill="1" layer="4" shape="115.48,18.75 115.48,23.22 117.43,23.22 117.43,18.75"/>
    <poly id="building_86" type="building" color="1.00,0.00,0.00" fill="1" layer="4" shape="120.11,14.12 120.11,18.59 122.06,18.59 122.06,14.12"/>
    <poly id="building_87" type="building" color="1.00,0.00,0.00" fill="1" layer="4" shape="-168.18,-39.61 -168.18,-41.78 -167.05,-41.78 -167.05,-39.61"/>
    <poly id="building_88" type="building" color="1.00,0.00,0.00" fill="1" layer="4" shape="-166.31,-41.47 -166.31,-43.65 -165.18,-43.65 -165.18,-41.47"/>
    <poly id="building_89" type="building" color="1.00,0.00,0.00" fill="1" layer="4" shape="-164.56,-43.23 -164.56,-45.40 -163.43,-45.40 -163.43,-43.23"/>
    <poly id="building_90" type="building" color="1.00,0.00,0.00" fill="1" layer="4" shape="-196.80,130.74 -198.98,130.74 -198.98,129.61 -196.80,129.61"/>
    <poly id="building_91" type="building" color="1.00,0.00,0.00" fill="1" layer="4" shape="-200.53,130.74 -202.71,130.74 -202.71,129.61 -200.53,129.61"/>
    <poly id="building_92" type="building" color="1.00,0.00,0.00" fill="1" layer="4" shape="-204.69,130.74 -206.86,130.74 -206.86,129.61 -204.69,129.61"/>
    <poly id="building_93" type="building" color="1.00,0.00,0.00" fill="1" layer="4" shape="1.09,-0.02 -1.09,-0.02 -1.09,1.11 1.09,1.11"/>
    <poly id="building_94" type="building" color="1.00,0.00,0.00" fill="1" layer="4" shape="-141.40,-202.84 -145.87,-202.84 -145.87,-204.78 -141.40,-204.78"/>
    <poly id="building_95" type="building" color="1.00,0.00,0.00" fill="1" layer="4" shape="1.09,-0.02 -1.09,-0.02 -1.09,1.11 1.09,1.11"/>
    <poly id="building_96" type="building" color="1.00,0.00,0.00" fill="1" layer="4" shape="1.09,-0.02 -1.09,-0.02 -1.09,1.11 1.09,1.11"/>
    <poly id="building_97" type="building" color="1.00,0.00,0.00" fill="1" layer="4" shape="-133.23,-74.55 -133.23,-76.72 -132.11,-76.72 -132.11,-74.55"/>
    <poly id="building_98" type="building" color="1.00,0.00,0.00" fill="1" layer="4" shape="-131.37,-76.41 -131.37,-78.59 -130.24,-78.59 -130.24,-76.41"/>
    <poly id="building_99" type="building" color="1.00,0.00,0.00" fill="1" layer="4" shape="-129.62,-78.17 -129.62,-80.34 -128.49,-80.34 -128.49,-78.17"/>
    <poly id="building_100" type="building" color="1.00,0.00,0.00" fill="1" layer="4" shape="-196.80,60.86 -198.98,60.86 -198.98,59.73 -196.80,59.73"/>
    <poly id="building_101" type="building" color="1.00,0.00,0.00" fill="1" layer="4" shape="-200.53,60.86 -202.71,60.86 -202.71,59.73 -200.53,59.73"/>
    <poly id="building_102" type="building" color="1.00,0.00,0.00" fill="1" layer="4" shape="-204.69,60.86 -206.86,60.86 -206.86,59.73 -204.69,59.73"/>
    <poly id="building_103" type="building" color="1.00,0.00,0.00" fill="1" layer="4" shape="1.09,-0.02 -1.09,-0.02 -1.09,1.11 1.09,1.11"/>
    <poly id="building_104" type="building" color="1.00,0.00,0.00" fill="1" layer="4" shape="1.09,-0.02 -1.09,-0.02 -1.09,1.11 1.09,1.11"/>
    <poly id="building_105" type="building" color="1.00,0.00,0.00" fill="1" layer="4" shape="-1.09,-0.02 1.09,-0.02 1.09,1.11 -1.09,1.11"/>
    <poly id="building_106" type="building" color="1.00,0.00,0.00" fill="1" layer="4" shape="1.09,-0.02 -1.09,-0.02 -1.09,1.11 1.09,1.11"/>
    <poly id="building_107" type="building" color="1.00,0.00,0.00" fill="1" layer="4" shape="56.55,192.69 56.55,197.15 54.61,197.15 54.61,192.69"/>
    <poly id="building_108" type="building" color="1.00,0.00,0.00" fill="1" layer="4" shape="51.95,188.08 51.95,192.55 50.01,192.55 50.01,188.08"/>
    <poly id="building_109" type="building" color="1.00,0.00,0.00" fill="1" layer="4" shape="47.16,183.29 47.16,187.76 45.22,187.76 45.22,183.29"/>
    <poly id="building_110" type="building" color="1.00,0.00,0.00" fill="1" layer="4" shape="38.26,174.39 38.26,178.86 36.32,178.86 36.32,174.39"/>
    <poly id="building_111" type="building" color="1.00,0.00,0.00" fill="1" layer="4" shape="-1.36,-0.02 1.36,-0.02 1.36,1.11 -1.36,1.11"/>
    <poly id="building_112" type="building" color="1.00,0.00,0.00" fill="1" layer="4" shape="-1.36,-0.02 1.36,-0.02 1.36,1.11 -1.36,1.11"/>
    <poly id="building_113" type="building" color="1.00,0.00,0.00" fill="1" layer="4" shape="-1.36,-0.02 1.36,-0.02 1.36,1.11 -1.36,1.11"/>
    <poly id="building_114" type="building" color="1.00,0.00,0.00" fill="1" layer="4" shape="-1.36,-0.02 1.36,-0.02 1.36,1.11 -1.36,1.11"/>
    <poly id="building_115" type="building" color="1.00,0.00,0.00" fill="1" layer="4" shape="-1.36,-0.02 1.36,-0.02 1.36,1.11 -1.36,1.11"/>
    <poly id="building_116" type="building" color="1.00,0.00,0.00" fill="1" layer="4" shape="-137.01,-207.48 -145.43,-207.48 -145.43,-216.08 -137.01,-216.08"/>
    <poly id="building_117" type="building" color="1.00,0.00,0.00" fill="1" layer="4" shape="-287.83,-211.25 -295.49,-211.25 -295.49,-221.10 -287.83,-221.10"/>
    <poly id="building_118" type="building" color="1.00,0.00,0.00" fill="1" layer="4" shape="4.21,-4.30 -4.21,-4.30 -4.21,4.30 4.21,4.30"/>
    <poly id="building_119" type="building" color="1.00,0.00,0.00" fill="1" layer="4" shape="-4.21,-4.30 4.21,-4.30 4.21,4.30 -4.21,4.30"/>
    <poly id="building_120" type="building" color="1.00,0.00,0.00" fill="1" layer="4" shape="-4.21,-4.30 4.21,-4.30 4.21,4.30 -4.21,4.30"/>
    <poly id="building_121" type="building" color="1.00,0.00,0.00" fill="1" layer="4" shape="-4.21,-4.30 4.21,-4.30 4.21,4.30 -4.21,4.30"/>
    <poly id="building_122" type="building" color="1.00,0.00,0.00" fill="1" layer="4" shape="-4.21,-4.30 4.21,-4.30 4.21,4.30 -4.21,4.30"/>
    <poly id="building_123" type="building" color="1.00,0.00,0.00" fill="1" layer="4" shape="-4.21,-4.30 4.21,-4.30 4.21,4.30 -4.21,4.30"/>
    <poly id="building_124" type="building" color="1.00,0.00,0.00" fill="1" layer="4" shape="3.83,-4.92 -3.83,-4.92 -3.83,4.92 3.83,4.92"/>
    <poly id="building_125" type="building" color="1.00,0.00,0.00" fill="1" layer="4" shape="-57.57,-257.99 -57.57,-265.65 -47.72,-265.65 -47.72,-257.99"/>
    <poly id="building_126" type="building" color="1.00,0.00,0.00" fill="1" layer="4" shape="-248.69,48.27 -248.69,40.61 -258.54,40.61 -258.54,48.27"/>
    <poly id="building_127" type="building" color="1.00,0.00,0.00" fill="1" layer="4" shape="-66.52,-266.97 -66.52,-274.63 -56.68,-274.63 -56.68,-266.97"/>
    <poly id="building_128" type="building" color="1.00,0.00,0.00" fill="1" layer="4" shape="-42.47,-280.75 -42.47,-273.09 -32.62,-273.09 -32.62,-280.75"/>
    <poly id="building_129" type="building" color="1.00,0.00,0.00" fill="1" layer="4" shape="-263.79,25.51 -263.79,33.17 -273.64,33.17 -273.64,25.51"/>
    <poly id="building_130" type="building" color="1.00,0.00,0.00" fill="1" layer="4" shape="-51.47,-289.75 -51.47,-282.09 -41.62,-282.09 -41.62,-289.75"/>
    <poly id="building_131" type="building" color="1.00,0.00,0.00" fill="1" layer="4" shape="-342.89,-211.25 -335.23,-211.25 -335.23,-221.10 -342.89,-221.10"/>
    <poly id="building_132" type="building" color="1.00,0.00,0.00" fill="1" layer="4" shape="-3.83,-4.92 3.83,-4.92 3.83,4.92 -3.83,4.92"/>
    <poly id="building_133" type="building" color="1.00,0.00,0.00" fill="1" layer="4" shape="-137.19,-207.60 -145.61,-207.60 -145.61,-216.19 -137.19,-216.19"/>
    <poly id="building_134" type="building" color="1.00,0.00,0.00" fill="1" layer="4" shape="-215.01,-207.60 -206.59,-207.60 -206.59,-216.20 -215.01,-216.20"/>
    <poly id="building_135" type="building" color="1.00,0.00,0.00" fill="1" layer="4" shape="-201.81,-207.60 -193.39,-207.60 -193.39,-216.19 -201.81,-216.19"/>
    <poly id="building_136" type="building" color="1.00,0.00,0.00" fill="1" layer="4" shape="-188.41,-207.60 -179.99,-207.60 -179.99,-216.20 -188.41,-216.20"/>
    <poly id="building_137" type="building" color="1.00,0.00,0.00" fill="1" layer="4" shape="-175.01,-207.60 -166.59,-207.60 -166.59,-216.19 -175.01,-216.19"/>
    <poly id="building_138" type="building" color="1.00,0.00,0.00" fill="1" layer="4" shape="-161.61,-207.60 -153.19,-207.60 -153.19,-216.20 -161.61,-216.20"/>
    <poly id="building_139" type="building" color="1.00,0.00,0.00" fill="1" layer="4" shape="4.21,-4.30 -4.21,-4.30 -4.21,4.30 4.21,4.30"/>
    <poly id="building_140" type="building" color="1.00,0.00,0.00" fill="1" layer="4" shape="-4.21,-4.30 4.21,-4.30 4.21,4.30 -4.21,4.30"/>
    <poly id="building_141" type="building" color="1.00,0.00,0.00" fill="1" layer="4" shape="-4.21,-4.30 4.21,-4.30 4.21,4.30 -4.21,4.30"/>
    <poly id="building_142" type="building" color="1.00,0.00,0.00" fill="1" layer="4" shape="-4.21,-4.30 4.21,-4.30 4.21,4.30 -4.21,4.30"/>
    <poly id="building_143" type="building" color="1.00,0.00,0.00" fill="1" layer="4" shape="-4.21,-4.30 4.21,-4.30 4.21,4.30 -4.21,4.30"/>
    <poly id="building_144" type="building" color="1.00,0.00,0.00" fill="1" layer="4" shape="-4.21,-4.30 4.21,-4.30 4.21,4.30 -4.21,4.30"/>
    <poly id="building_145" type="building" color="1.00,0.00,0.00" fill="1" layer="4" shape="-287.77,-211.28 -295.43,-211.28 -295.43,-221.12 -287.77,-221.12"/>
    <poly id="building_146" type="building" color="1.00,0.00,0.00" fill="1" layer="4" shape="3.83,-4.92 -3.83,-4.92 -3.83,4.92 3.83,4.92"/>
    <poly id="building_147" type="building" color="1.00,0.00,0.00" fill="1" layer="4" shape="-57.52,-257.97 -57.52,-265.63 -47.68,-265.63 -47.68,-257.97"/>
    <poly id="building_148" type="building" color="1.00,0.00,0.00" fill="1" layer="4" shape="-248.68,48.23 -248.68,40.57 -258.52,40.57 -258.52,48.23"/>
    <poly id="building_149" type="building" color="1.00,0.00,0.00" fill="1" layer="4" shape="-42.42,-280.73 -42.42,-273.07 -32.58,-273.07 -32.58,-280.73"/>
    <poly id="building_150" type="building" color="1.00,0.00,0.00" fill="1" layer="4" shape="-263.78,25.47 -263.78,33.13 -273.62,33.13 -273.62,25.47"/>
    <poly id="building_151" type="building" color="1.00,0.00,0.00" fill="1" layer="4" shape="-51.42,-289.73 -51.42,-282.07 -41.58,-282.07 -41.58,-289.73"/>
    <poly id="building_152" type="building" color="1.00,0.00,0.00" fill="1" layer="4" shape="-342.83,-211.28 -335.17,-211.28 -335.17,-221.12 -342.83,-221.12"/>
    <poly id="building_153" type="building" color="1.00,0.00,0.00" fill="1" layer="4" shape="-3.83,-4.92 3.83,-4.92 3.83,4.92 -3.83,4.92"/>
    <poly id="building_154" type="building" color="1.00,0.00,0.00" fill="1" layer="4" shape="-66.32,-266.97 -66.32,-274.63 -56.48,-274.63 -56.48,-266.97"/>
    <poly id="building_155" type="building" color="1.00,0.00,0.00" fill="1" layer="4" shape="-215.10,-207.41 -206.67,-207.41 -206.67,-216.00 -215.10,-216.00"/>
    <poly id="building_156" type="building" color="1.00,0.00,0.00" fill="1" layer="4" shape="-201.81,-207.48 -193.39,-207.48 -193.39,-216.08 -201.81,-216.08"/>
    <poly id="building_157" type="building" color="1.00,0.00,0.00" fill="1" layer="4" shape="-188.41,-207.41 -179.99,-207.41 -179.99,-216.00 -188.41,-216.00"/>
    <poly id="building_158" type="building" color="1.00,0.00,0.00" fill="1" layer="4" shape="-175.01,-207.48 -166.59,-207.48 -166.59,-216.08 -175.01,-216.08"/>
    <poly id="building_159" type="building" color="1.00,0.00,0.00" fill="1" layer="4" shape="-161.61,-207.41 -153.19,-207.41 -153.19,-216.00 -161.61,-216.00"/>
    <poly id="building_160" type="building" color="1.00,0.00,0.00" fill="1" layer="4" shape="-146.84,-45.20 -194.88,-45.20 -194.88,-81.34 -146.84,-81.34"/>
    <poly id="building_161" type="building" color="1.00,0.00,0.00" fill="1" layer="4" shape="-207.40,118.85 -207.65,118.85 -207.65,118.60 -207.40,118.60"/>
    <poly id="building_162" type="building" color="1.00,0.00,0.00" fill="1" layer="4" shape="-207.40,129.30 -207.65,129.30 -207.65,129.05 -207.40,129.05"/>
    <poly id="building_163" type="building" color="1.00,0.00,0.00" fill="1" layer="4" shape="-207.40,48.99 -207.65,48.99 -207.65,48.74 -207.40,48.74"/>
    <poly id="building_164" type="building" color="1.00,0.00,0.00" fill="1" layer="4" shape="-207.40,59.45 -207.65,59.45 -207.65,59.20 -207.40,59.20"/>
    <poly id="building_165" type="building" color="1.00,0.00,0.00" fill="1" layer="4" shape="-145.26,-45.15 -193.26,-45.15 -193.26,-81.65 -145.26,-81.65"/>
    <poly id="building_166" type="building" color="1.00,0.00,0.00" fill="1" layer="4" shape="-145.26,-45.15 -193.26,-45.15 -193.26,-81.65 -145.26,-81.65"/>
    <poly id="building_167" type="building" color="1.00,0.00,0.00" fill="1" layer="4" shape="-145.26,-45.15 -193.26,-45.15 -193.26,-81.65 -145.26,-81.65"/>
    <poly id="building_168" type="building" color="1.00,0.00,0.00" fill="1" layer="4" shape="-145.26,-45.15 -193.26,-45.15 -193.26,-81.65 -145.26,-81.65"/>
    <poly id="building_169" type="building" color="1.00,0.00,0.00" fill="1" layer="4" shape="-145.26,-45.15 -193.26,-45.15 -193.26,-81.65 -145.26,-81.65"/>
    <poly id="building_170" type="building" color="1.00,0.00,0.00" fill="1" layer="4" shape="-145.26,-45.15 -193.26,-45.15 -193.26,-81.65 -145.26,-81.65"/>
    <poly id="building_171" type="building" color="1.00,0.00,0.00" fill="1" layer="4" shape="-145.26,-45.15 -193.26,-45.15 -193.26,-81.65 -145.26,-81.65"/>
    <poly id="building_172" type="building" color="1.00,0.00,0.00" fill="1" layer="4" shape="-145.26,-45.15 -193.26,-45.15 -193.26,-81.65 -145.26,-81.65"/>
    <poly id="building_173" type="building" color="1.00,0.00,0.00" fill="1" layer="4" shape="-148.39,-42.28 -199.29,-42.28 -199.29,-81.02 -148.39,-81.02"/>
    <poly id="building_174" type="building" color="1.00,0.00,0.00" fill="1" layer="4" shape="-145.26,-53.40 -193.26,-53.40 -193.26,-73.40 -145.26,-73.40"/>
    <poly id="building_175" type="building" color="1.00,0.00,0.00" fill="1" layer="4" shape="-145.26,-53.40 -193.26,-53.40 -193.26,-73.40 -145.26,-73.40"/>
    <poly id="building_176" type="building" color="1.00,0.00,0.00" fill="1" layer="4" shape="-168.67,230.19 -183.76,230.19 -183.76,217.05 -168.67,217.05"/>
    <poly id="building_177" type="building" color="1.00,0.00,0.00" fill="1" layer="4" shape="-200.41,126.82 -205.41,126.82 -205.41,120.82 -200.41,120.82"/>
    <poly id="building_178" type="building" color="1.00,0.00,0.00" fill="1" layer="4" shape="-200.41,56.97 -205.41,56.97 -205.41,50.97 -200.41,50.97"/>
    <poly id="building_179" type="building" color="1.00,0.00,0.00" fill="1" layer="4" shape="-119.09,-228.24 -119.09,-222.34 -126.34,-222.34 -126.34,-228.24"/>
    <poly id="building_180" type="building" color="1.00,0.00,0.00" fill="1" layer="4" shape="-113.19,-222.34 -113.19,-216.44 -120.45,-216.44 -120.45,-222.34"/>
    <poly id="building_181" type="building" color="1.00,0.00,0.00" fill="1" layer="4" shape="-106.58,-215.73 -106.58,-209.83 -113.84,-209.83 -113.84,-215.73"/>
    <poly id="building_182" type="building" color="1.00,0.00,0.00" fill="1" layer="4" shape="225.97,-90.40 225.97,-96.31 233.22,-96.31 233.22,-90.40"/>
    <poly id="building_183" type="building" color="1.00,0.00,0.00" fill="1" layer="4" shape="231.86,-96.30 231.86,-102.20 239.12,-102.20 239.12,-96.30"/>
    <poly id="building_184" type="building" color="1.00,0.00,0.00" fill="1" layer="4" shape="238.18,-102.61 238.18,-108.51 245.43,-108.51 245.43,-102.61"/>
    <poly id="building_185" type="building" color="1.00,0.00,0.00" fill="1" layer="4" shape="-123.15,-109.00 -125.89,-109.00 -125.89,-111.32 -123.15,-111.32"/>
    <poly id="building_186" type="building" color="1.00,0.00,0.00" fill="1" layer="4" shape="-123.15,-131.04 -125.89,-131.04 -125.89,-133.36 -123.15,-133.36"/>
    <poly id="building_187" type="building" color="1.00,0.00,0.00" fill="1" layer="4" shape="-220.13,-131.04 -222.87,-131.04 -222.87,-133.36 -220.13,-133.36"/>
    <poly id="building_188" type="building" color="1.00,0.00,0.00" fill="1" layer="4" shape="-0.01,-217.30 -0.01,-220.05 2.30,-220.05 2.30,-217.30"/>
    <poly id="building_189" type="building" color="1.00,0.00,0.00" fill="1" layer="4" shape="-100.48,-184.48 -100.48,-187.23 -98.17,-187.23 -98.17,-184.48"/>
    <poly id="building_190" type="building" color="1.00,0.00,0.00" fill="1" layer="4" shape="-221.39,-109.34 -224.13,-109.34 -224.13,-111.66 -221.39,-111.66"/>
    <poly id="building_191" type="building" color="1.00,0.00,0.00" fill="1" layer="4" shape="-274.01,102.72 -289.10,102.72 -289.10,89.57 -274.01,89.57"/>
    <poly id="building_192" type="building" color="1.00,0.00,0.00" fill="1" layer="4" shape="-14.10,-8.72 1.00,-8.72 1.00,4.43 -14.10,4.43"/>
    <poly id="building_193" type="building" color="1.00,0.00,0.00" fill="1" layer="4" shape="-2.10,-1.31 2.41,-1.31 2.41,1.73 -2.10,1.73"/>
    <poly id="building_194" type="building" color="1.00,0.00,0.00" fill="1" layer="4" shape="-204.24,-46.67 -204.24,-42.17 -207.27,-42.17 -207.27,-46.67"/>
    <poly id="building_195" type="building" color="1.00,0.00,0.00" fill="1" layer="4" shape="146.04,-38.43 104.54,-38.43 104.54,-83.88 146.04,-83.88"/>
    <poly id="building_196" type="building" color="1.00,0.00,0.00" fill="1" layer="4" shape="-21.94,-28.97 19.56,-28.97 19.56,16.49 -21.94,16.49"/>
    <poly id="building_197" type="building" color="1.00,0.00,0.00" fill="1" layer="4" shape="-0.34,-6.78 0.34,-6.78 0.34,4.41 -0.34,4.41"/>