<?xml version='1.0' encoding='UTF-8'?>
<routes xmlns:xsi="http://www.w3.org/2001/XMLSchema-instance" xsi:noNamespaceSchemaLocation="http://sumo.dlr.de/xsd/routes_file.xsd">
    <vehicle id="0" type="vehicle.toyota.prius" depart="0.00">
        <route edges="43.0.00 23.0.00 -52.0.00 49.0.00 7.0.00 6.0.00"/>
    </vehicle>
    <vehicle id="1" type="vehicle.toyota.prius" depart="1.00">
        <route edges="33.0.00 -39.0.00 25.0.00 -6.0.00"/>
    </vehicle>
    <vehicle id="2" type="vehicle.toyota.prius" depart="2.00">
        <route edges="-8.0.00 -45.0.00 -46.0.00 6.0.00 15.0.00 13.0.00 35.0.00 -27.0.00 20.0.00"/>
    </vehicle>
    <vehicle id="3" type="vehicle.toyota.prius" depart="3.00">
        <route edges="2.0.00 -50.0.00 -23.0.00 -24.0.00 11.0.00 10.0.00 9.0.00"/>
    </vehicle>
    <vehicle id="4" type="vehicle.toyota.prius" depart="4.00">
        <route edges="-14.0.00 33.0.00 -48.0.00"/>
    </vehicle>
    <vehicle id="5" type="vehicle.toyota.prius" depart="5.00">
        <route edges="-8.0.00 44.0.00 2.0.00 -50.0.00 -23.0.00"/>
    </vehicle>
    <vehicle id="6" type="vehicle.toyota.prius" depart="6.00">
        <route edges="40.0.00 -1.0.00 -2.0.00 43.0.00 -24.0.00 11.0.00"/>
    </vehicle>
    <vehicle id="7" type="vehicle.toyota.prius" depart="7.00">
        <route edges="-39.0.00 -0.0.00 -18.0.00 -41.0.00"/>
    </vehicle>
    <vehicle id="8" type="vehicle.toyota.prius" depart="8.00">
        <route edges="46.0.00 -4.0.00 -8.0.00"/>
    </vehicle>
    <vehicle id="9" type="vehicle.toyota.prius" depart="9.00">
        <route edges="3.0.00 2.0.00 1.0.00 -18.0.00 -41.0.00"/>
    </vehicle>
    <vehicle id="10" type="vehicle.toyota.prius" depart="10.00">
        <route edges="-48.0.00 -20.0.00 -28.0.00 -29.0.00 -0.0.00 -1.0.00 49.0.00 7.0.00"/>
    </vehicle>
</routes>
