<?xml version="1.0" encoding="UTF-8"?>

<!-- generated on 2025-03-07 21:55:17 by 
<configuration xmlns:xsi="http://www.w3.org/2001/XMLSchema-instance" xsi:noNamespaceSchemaLocation="http://sumo.dlr.de/xsd/Configuration.xsd">

    <input>
        <osm-files value="TRUE"/>
    </input>

    <output>
        <opendrive-output value="TRUE"/>
    </output>

    <projection>
        <proj value="+proj=tmerc"/>
    </projection>

    <processing>
        <geometry.remove value="true"/>
        <roundabouts.guess value="true"/>
        <edges.join value="true"/>
    </processing>

    <building_defaults>
        <default.lanewidth value="3.350000"/>
        <default.sidewalk-width value="2.800000"/>
    </building_defaults>

    <tls_building>
        <tls.group-signals value="true"/>
    </tls_building>

    <ramp_guessing>
        <ramps.guess value="true"/>
    </ramp_guessing>

    <edge_removal>
        <keep-edges.by-type value="highway.motorway,highway.motorway_link,highway.trunk,highway.trunk_link,highway.primary,highway.primary_link,highway.secondary,highway.secondary_link,highway.tertiary,highway.tertiary_link,highway.unclassified,highway.residential,"/>
    </edge_removal>

    <junctions>
        <junctions.join value="true"/>
    </junctions>

    <pedestrian>
        <sidewalks.guess value="true"/>
    </pedestrian>

    <formats>
        <osm.sidewalks value="true"/>
        <osm.crossings value="true"/>
    </formats>

    <report>
        <aggregate-warnings value="5"/>
    </report>

</configuration>
-->

<OpenDRIVE>
    <header revMajor="1" revMinor="4" name="" version="1.00" date="Fri Mar  7 21:55:17 2025" north="4347.13" south="0.00" east="3506.94" west="0.00">
        <geoReference>
 <![CDATA[
 +proj=tmerc
]]>
        </geoReference>
        <offset x="7694714.38" y="-9583761.58" z="0.00" hdg="0"/>
    </header>
    <road name="4th Street" length="361.81130877" id="2460" junction="-1">
        <link>
            <predecessor elementType="junction" elementId="1"/>
            <successor elementType="junction" elementId="2"/>
        </link>
        <type s="0" type="town"/>
        <planView>
            <geometry s="0.00000000" x="305.53808176" y="701.83429244" hdg="1.49818985" length="3.31959702">
                <line/>
            </geometry>
            <geometry s="3.31959702" x="305.77889431" y="705.14514334" hdg="1.49818985" length="5.97704534">
                <paramPoly3 aU="0.00000000" bU="4.48266770" cU="4.47808763" dU="-2.98582756" aV="0.00000000" bV="-0.00000000" cV="0.35119686" dV="-0.19804538" pRange="normalized"/>
            </geometry>
            <geometry s="9.29664236" x="306.05958374" y="711.11543904" hdg="1.52234246" length="55.72475861">
                <line/>
            </geometry>
            <geometry s="65.02140098" x="308.75860753" y="766.77479579" hdg="1.52234246" length="11.17599164">
                <paramPoly3 aU="0.00000000" bU="8.38199299" cU="8.38197750" dU="-5.58798919" aV="0.00000000" bV="0.00000000" cV="-0.02885498" dV="0.01439826" pRange="normalized"/>
            </geometry>
            <geometry s="76.19739262" x="309.31435494" y="777.93696008" hdg="1.52061075" length="5.72636470">
                <paramPoly3 aU="0.00000000" bU="4.29349733" cU="4.30941691" dU="-2.87825323" aV="0.00000000" bV="0.00000000" cV="0.35477078" dV="-0.35966762" pRange="normalized"/>
            </geometry>
            <geometry s="81.92375732" x="309.60642046" y="783.65416792" hdg="1.43445283" length="11.09248020">
                <paramPoly3 aU="0.00000000" bU="8.31200264" cU="8.40436452" dU="-5.64443454" aV="0.00000000" bV="-0.00000000" cV="-0.02953864" dV="-0.45819758" pRange="normalized"/>
            </geometry>
            <geometry s="93.01623752" x="311.59454359" y="794.55705493" hdg="1.26110405" length="30.16063652">
                <line/>
            </geometry>
            <geometry s="123.17687403" x="320.78646710" y="823.28287149" hdg="1.26110405" length="6.40210997">
                <paramPoly3 aU="0.00000000" bU="4.80157388" cU="4.80163852" dU="-3.20111828" aV="0.00000000" bV="0.00000000" cV="0.04983276" dV="-0.04233386" pRange="normalized"/>
            </geometry>
            <geometry s="129.57898400" x="322.73046279" y="829.38268674" hdg="1.25541087" length="3.56703259">
                <paramPoly3 aU="0.00000000" bU="2.67525601" cU="2.67471769" dU="-1.78323642" aV="0.00000000" bV="0.00000000" cV="-0.09356164" dV="0.04961479" pRange="normalized"/>
            </geometry>
            <geometry s="133.14601659" x="323.87858310" y="832.75986987" hdg="1.24110188" length="32.50447911">
                <line/>
            </geometry>
            <geometry s="165.65049570" x="334.40203642" y="863.51370040" hdg="1.24110188" length="11.15056923">
                <paramPoly3 aU="0.00000000" bU="8.36027186" cU="8.32142477" dU="-5.56356324" aV="0.00000000" bV="0.00000000" cV="1.51320938" dV="-0.71110676" pRange="normalized"/>
            </geometry>
            <geometry s="176.80106493" x="337.24267354" y="874.29270961" hdg="1.34813260" length="10.54710641">
                <paramPoly3 aU="0.00000000" bU="7.90973354" cU="7.89835818" dU="-5.26900120" aV="0.00000000" bV="-0.00000000" cV="0.76731775" dV="-0.37711933" pRange="normalized"/>
            </geometry>
            <geometry s="187.34817133" x="339.18943820" y="884.65778517" hdg="1.39913969" length="5.87490844">
                <paramPoly3 aU="0.00000000" bU="4.40607003" cU="4.40180620" dU="-2.93497178" aV="0.00000000" bV="0.00000000" cV="0.33578822" dV="-0.18814397" pRange="normalized"/>
            </geometry>
            <geometry s="193.22307977" x="340.04714329" y="890.46959621" hdg="1.42345957" length="16.47675951">
                <line/>
            </geometry>
            <geometry s="209.69983928" x="342.46600190" y="906.76783927" hdg="1.42345957" length="11.13097366">
                <paramPoly3 aU="0.00000000" bU="8.33944026" cU="8.33901026" dU="-5.61565503" aV="0.00000000" bV="-0.00000000" cV="1.68715550" dV="-0.56806735" pRange="normalized"/>
            </geometry>
            <geometry s="220.83081294" x="342.98310403" y="917.87506250" hdg="1.62508930" length="23.99365798">
                <line/>
            </geometry>
            <geometry s="244.82447093" x="341.68105686" y="941.83336579" hdg="1.62508930" length="11.17559917">
                <paramPoly3 aU="0.00000000" bU="8.38162045" cU="8.38162042" dU="-5.58825297" aV="-0.00000000" bV="-0.00000000" cV="-0.15953153" dV="0.05318199" pRange="normalized"/>
            </geometry>
            <geometry s="256.00007010" x="341.18082440" y="952.99765852" hdg="1.60605638" length="20.07547014">
                <line/>
            </geometry>
            <geometry s="276.07554024" x="340.47310890" y="973.06065033" hdg="1.60605638" length="11.17599384">
                <paramPoly3 aU="0.00000000" bU="8.38199485" cU="8.38198308" dU="-5.58799167" aV="-0.00000000" bV="0.00000000" cV="-0.02499881" dV="0.01260681" pRange="normalized"/>
            </geometry>
            <geometry s="287.25153408" x="340.09150897" y="984.23012677" hdg="1.60460360" length="5.02627592">
                <paramPoly3 aU="0.00000000" bU="3.76970276" cU="3.76973849" dU="-2.51317238" aV="-0.00000000" bV="-0.00000000" cV="-0.02892930" dV="0.02508506" pRange="normalized"/>
            </geometry>
            <geometry s="292.27781000" x="339.92545894" y="989.25365352" hdg="1.60921845" length="11.17569518">
                <paramPoly3 aU="0.00000000" bU="8.38174507" cU="8.38208455" dU="-5.58820224" aV="-0.00000000" bV="-0.00000000" cV="-0.00453026" dV="0.03156988" pRange="normalized"/>
            </geometry>
            <geometry s="303.45350518" x="339.46915356" y="1000.41999420" hdg="1.61943716" length="27.54847558">
                <line/>
            </geometry>
            <geometry s="331.00198077" x="338.12970110" y="1027.93588732" hdg="1.61943716" length="11.17228363">
                <paramPoly3 aU="0.00000000" bU="8.37848143" cU="8.37847848" dU="-5.59034079" aV="-0.00000000" bV="0.00000000" cV="0.48568666" dV="-0.16203142" pRange="normalized"/>
            </geometry>
            <geometry s="342.17426440" x="337.26348917" y="1039.07356266" hdg="1.67738928" length="19.63704437">
                <line/>
            </geometry>
        </planView>
        <elevationProfile>
            <elevation s="0" a="0.00" b="0" c="0" d="0"/>
        </elevationProfile>
        <lateralProfile/>
        <lanes>
            <laneSection s="0">
                <center>
                    <lane id="0" type="none" level="true">
                        <link/>
                        <roadMark sOffset="0" type="solid" weight="standard" color="standard" width="0.13" laneChange="none"/>
                    </lane>
                </center>
                <right>
                    <lane id="-1" type="driving" level="true">
                        <link/>
                        <width sOffset="0" a="3.35" b="0" c="0" d="0"/>
                        <roadMark sOffset="0" type="solid" weight="standard" color="standard" width="0.13" laneChange="none"/>
                        <speed sOffset="0" max="11.18"/>
                    </lane>
                    <lane id="-2" type="sidewalk" level="true">
                        <link/>
                        <width sOffset="0" a="2.80" b="0" c="0" d="0"/>
                        <roadMark sOffset="0" type="solid" weight="standard" color="standard" width="0.13" laneChange="none"/>
                        <speed sOffset="0" max="11.18"/>
                    </lane>
                 </right>
            </laneSection>
        </lanes>
        <objects/>
    </road>
    <road name="University Boulevard" length="50.03411292" id="2461" junction="-1">
        <link>
            <predecessor elementType="junction" elementId="3"/>
            <successor elementType="junction" elementId="4"/>
        </link>
        <type s="0" type="town"/>
        <planView>
            <geometry s="0.00000000" x="213.23938034" y="3140.58642251" hdg="-1.71511176" length="50.03411292">
                <line/>
            </geometry>
        </planView>
        <elevationProfile>
            <elevation s="0" a="0.00" b="0" c="0" d="0"/>
        </elevationProfile>
        <lateralProfile/>
        <lanes>
            <laneSection s="0">
                <center>
                    <lane id="0" type="none" level="true">
                        <link/>
                        <roadMark sOffset="0" type="solid" weight="standard" color="standard" width="0.13" laneChange="none"/>
                    </lane>
                </center>
                <right>
                    <lane id="-1" type="driving" level="true">
                        <link/>
                        <width sOffset="0" a="3.35" b="0" c="0" d="0"/>
                        <roadMark sOffset="0" type="solid" weight="standard" color="standard" width="0.13" laneChange="none"/>
                        <speed sOffset="0" max="11.18"/>
                    </lane>
                    <lane id="-2" type="sidewalk" level="true">
                        <link/>
                        <width sOffset="0" a="2.80" b="0" c="0" d="0"/>
                        <roadMark sOffset="0" type="solid" weight="standard" color="standard" width="0.13" laneChange="none"/>
                        <speed sOffset="0" max="11.18"/>
                    </lane>
                 </right>
            </laneSection>
        </lanes>
        <objects/>
    </road>
    <road name="University Boulevard" length="67.18534348" id="2462" junction="-1">
        <link>
            <predecessor elementType="junction" elementId="5"/>
            <successor elementType="junction" elementId="6"/>
        </link>
        <type s="0" type="town"/>
        <planView>
            <geometry s="0.00000000" x="241.00026774" y="3363.94004842" hdg="-1.65531332" length="0.20000000">
                <line/>
            </geometry>
            <geometry s="0.20000000" x="240.98338446" y="3363.74076231" hdg="-1.65531332" length="8.89740196">
                <paramPoly3 aU="-0.00000000" bU="6.67282870" cU="6.67044211" dU="-4.44833873" aV="0.00000000" bV="0.00000000" cV="-0.35506995" dV="0.15844948" pRange="normalized"/>
            </geometry>
            <geometry s="9.09740196" x="240.03658760" y="3354.89417812" hdg="-1.69050678" length="58.08794152">
                <line/>
            </geometry>
        </planView>
        <elevationProfile>
            <elevation s="0" a="0.00" b="0" c="0" d="0"/>
        </elevationProfile>
        <lateralProfile/>
        <lanes>
            <laneSection s="0">
                <center>
                    <lane id="0" type="none" level="true">
                        <link/>
                        <roadMark sOffset="0" type="solid" weight="standard" color="standard" width="0.13" laneChange="none"/>
                    </lane>
                </center>
                <right>
                    <lane id="-1" type="driving" level="true">
                        <link/>
                        <width sOffset="0" a="3.35" b="0" c="0" d="0"/>
                        <roadMark sOffset="0" type="solid" weight="standard" color="standard" width="0.13" laneChange="none"/>
                        <speed sOffset="0" max="11.18"/>
                    </lane>
                    <lane id="-2" type="sidewalk" level="true">
                        <link/>
                        <width sOffset="0" a="2.80" b="0" c="0" d="0"/>
                        <roadMark sOffset="0" type="solid" weight="standard" color="standard" width="0.13" laneChange="none"/>
                        <speed sOffset="0" max="11.18"/>
                    </lane>
                 </right>
            </laneSection>
        </lanes>
        <objects/>
    </road>
    <road name="University Boulevard" length="203.22955524" id="2463" junction="-1">
        <link>
            <predecessor elementType="junction" elementId="7"/>
            <successor elementType="junction" elementId="5"/>
        </link>
        <type s="0" type="town"/>
        <planView>
            <geometry s="0.00000000" x="269.61625493" y="3574.05732056" hdg="-1.70568800" length="51.15808999">
                <line/>
            </geometry>
            <geometry s="51.15808999" x="262.73636324" y="3523.36395550" hdg="-1.70568800" length="11.17599999">
                <paramPoly3 aU="-0.00000000" bU="8.38199999" cU="8.38199999" dU="-5.58800001" aV="0.00000000" bV="0.00000000" cV="0.00094644" dV="-0.00031548" pRange="normalized"/>
            </geometry>
            <geometry s="62.33408997" x="261.23400684" y="3512.28939452" hdg="-1.70557508" length="14.22971879">
                <line/>
            </geometry>
            <geometry s="76.56380877" x="259.32194418" y="3498.18872385" hdg="-1.70557508" length="11.17599976">
                <paramPoly3 aU="-0.00000000" bU="8.38199977" cU="8.38199977" dU="-5.58800015" aV="0.00000000" bV="0.00000000" cV="-0.00393173" dV="0.00131058" pRange="normalized"/>
            </geometry>
            <geometry s="87.73980852" x="257.81761571" y="3487.11443087" hdg="-1.70604415" length="13.31624822">
                <line/>
            </geometry>
            <geometry s="101.05605675" x="256.02210770" y="3473.91978735" hdg="-1.70604415" length="11.17599526">
                <paramPoly3 aU="-0.00000000" bU="8.38199551" cU="8.38199551" dU="-5.58800299" aV="0.00000000" bV="-0.00000000" cV="-0.01734693" dV="0.00578232" pRange="normalized"/>
            </geometry>
            <geometry s="112.23205201" x="254.50372453" y="3462.84741837" hdg="-1.70811370" length="52.63292122">
                <line/>
            </geometry>
            <geometry s="164.86497323" x="247.29900214" y="3410.70994267" hdg="-1.70811370" length="11.17599995">
                <paramPoly3 aU="-0.00000000" bU="8.38199995" cU="8.38199995" dU="-5.58800003" aV="0.00000000" bV="-0.00000000" cV="-0.00179400" dV="0.00059800" pRange="normalized"/>
            </geometry>
            <geometry s="176.04097318" x="245.76797685" y="3399.63930872" hdg="-1.70832773" length="12.77532691">
                <line/>
            </geometry>
            <geometry s="188.81630009" x="244.01650193" y="3386.98461341" hdg="-1.70832773" length="11.17599902">
                <paramPoly3 aU="-0.00000000" bU="8.38199907" cU="8.38199907" dU="-5.58800062" aV="0.00000000" bV="0.00000000" cV="0.00789182" dV="-0.00263061" pRange="normalized"/>
            </geometry>
            <geometry s="199.99229911" x="242.48950380" y="3375.91342445" hdg="-1.70738621" length="3.23725613">
                <line/>
            </geometry>
        </planView>
        <elevationProfile>
            <elevation s="0" a="0.00" b="0" c="0" d="0"/>
        </elevationProfile>
        <lateralProfile/>
        <lanes>
            <laneSection s="0">
                <center>
                    <lane id="0" type="none" level="true">
                        <link/>
                        <roadMark sOffset="0" type="solid" weight="standard" color="standard" width="0.13" laneChange="none"/>
                    </lane>
                </center>
                <right>
                    <lane id="-1" type="driving" level="true">
                        <link/>
                        <width sOffset="0" a="3.35" b="0" c="0" d="0"/>
                        <roadMark sOffset="0" type="solid" weight="standard" color="standard" width="0.13" laneChange="none"/>
                        <speed sOffset="0" max="11.18"/>
                    </lane>
                    <lane id="-2" type="sidewalk" level="true">
                        <link/>
                        <width sOffset="0" a="2.80" b="0" c="0" d="0"/>
                        <roadMark sOffset="0" type="solid" weight="standard" color="standard" width="0.13" laneChange="none"/>
                        <speed sOffset="0" max="11.18"/>
                    </lane>
                 </right>
            </laneSection>
        </lanes>
        <objects/>
    </road>
    <road name="University Boulevard" length="72.47923368" id="2464" junction="-1">
        <link>
            <predecessor elementType="junction" elementId="8"/>
            <successor elementType="junction" elementId="9"/>
        </link>
        <type s="0" type="town"/>
        <planView>
            <geometry s="0.00000000" x="299.69136096" y="3803.14077775" hdg="-1.69893585" length="66.41821871">
                <line/>
            </geometry>
            <geometry s="66.41821871" x="291.20383410" y="3737.26709814" hdg="-1.69893585" length="5.86101496">
                <paramPoly3 aU="-0.00000000" bU="4.39575985" cU="4.39577768" dU="-2.93052445" aV="0.00000000" bV="0.00000000" cV="0.01023241" dV="-0.01101346" pRange="normalized"/>
            </geometry>
            <geometry s="72.27923368" x="290.45408565" y="3731.45423720" hdg="-1.70179669" length="0.20000000">
                <line/>
            </geometry>
        </planView>
        <elevationProfile>
            <elevation s="0" a="0.00" b="0" c="0" d="0"/>
        </elevationProfile>
        <lateralProfile/>
        <lanes>
            <laneSection s="0">
                <center>
                    <lane id="0" type="none" level="true">
                        <link/>
                        <roadMark sOffset="0" type="solid" weight="standard" color="standard" width="0.13" laneChange="none"/>
                    </lane>
                </center>
                <right>
                    <lane id="-1" type="driving" level="true">
                        <link/>
                        <width sOffset="0" a="3.35" b="0" c="0" d="0"/>
                        <roadMark sOffset="0" type="solid" weight="standard" color="standard" width="0.13" laneChange="none"/>
                        <speed sOffset="0" max="11.18"/>
                    </lane>
                    <lane id="-2" type="sidewalk" level="true">
                        <link/>
                        <width sOffset="0" a="2.80" b="0" c="0" d="0"/>
                        <roadMark sOffset="0" type="solid" weight="standard" color="standard" width="0.13" laneChange="none"/>
                        <speed sOffset="0" max="11.18"/>
                    </lane>
                 </right>
            </laneSection>
        </lanes>
        <objects/>
    </road>
    <road name="University Boulevard" length="16.40090802" id="2465" junction="-1">
        <link>
            <predecessor elementType="junction" elementId="10"/>
            <successor elementType="junction" elementId="8"/>
        </link>
        <type s="0" type="town"/>
        <planView>
            <geometry s="0.00000000" x="301.82767885" y="3819.70470214" hdg="-1.69906353" length="16.40090802">
                <line/>
            </geometry>
        </planView>
        <elevationProfile>
            <elevation s="0" a="0.00" b="0" c="0" d="0"/>
        </elevationProfile>
        <lateralProfile/>
        <lanes>
            <laneSection s="0">
                <center>
                    <lane id="0" type="none" level="true">
                        <link/>
                        <roadMark sOffset="0" type="solid" weight="standard" color="standard" width="0.13" laneChange="none"/>
                    </lane>
                </center>
                <right>
                    <lane id="-1" type="driving" level="true">
                        <link/>
                        <width sOffset="0" a="3.35" b="0" c="0" d="0"/>
                        <roadMark sOffset="0" type="solid" weight="standard" color="standard" width="0.13" laneChange="none"/>
                        <speed sOffset="0" max="11.18"/>
                    </lane>
                    <lane id="-2" type="sidewalk" level="true">
                        <link/>
                        <width sOffset="0" a="2.80" b="0" c="0" d="0"/>
                        <roadMark sOffset="0" type="solid" weight="standard" color="standard" width="0.13" laneChange="none"/>
                        <speed sOffset="0" max="11.18"/>
                    </lane>
                 </right>
            </laneSection>
        </lanes>
        <objects/>
    </road>
    <road name="Randall Way" length="160.45932972" id="2466" junction="-1">
        <link>
            <predecessor elementType="junction" elementId="11"/>
            <successor elementType="junction" elementId="12"/>
        </link>
        <type s="0" type="town"/>
        <planView>
            <geometry s="0.00000000" x="2908.83166986" y="2636.26353472" hdg="-2.99506533" length="0.20000000">
                <line/>
            </geometry>
            <geometry s="0.20000000" x="2908.63381305" y="2636.23433401" hdg="-2.99506533" length="5.91119405">
                <paramPoly3 aU="-0.00000000" bU="4.43318652" cU="4.42603766" dU="-2.95161728" aV="0.00000000" bV="0.00000000" cV="-0.43634431" dV="0.23860456" pRange="normalized"/>
            </geometry>
            <geometry s="6.11119405" x="2902.76064096" y="2635.56742317" hdg="-3.03045922" length="19.96393108">
                <line/>
            </geometry>
            <geometry s="26.07512512" x="2882.91986672" y="2633.35332707" hdg="-3.03045922" length="2.51332123">
                <paramPoly3 aU="-0.00000000" bU="1.88472778" cU="1.88795507" dU="-1.25971249" aV="0.00000000" bV="0.00000000" cV="-0.11104394" dV="0.11077898" pRange="normalized"/>
            </geometry>
            <geometry s="28.58844635" x="2880.42236940" y="2633.07488988" hdg="-2.97192979" length="49.78117128">
                <line/>
            </geometry>
            <geometry s="78.36961764" x="2831.35596874" y="2624.66933576" hdg="-2.97192979" length="11.17407764">
                <paramPoly3 aU="-0.00000000" bU="8.38017983" cU="8.38017903" dU="-5.58921213" aV="0.00000000" bV="-0.00000000" cV="0.34934280" dV="-0.11649816" pRange="normalized"/>
            </geometry>
            <geometry s="89.54369528" x="2820.38453598" y="2622.55358549" hdg="-2.93024903" length="16.39681373">
                <line/>
            </geometry>
            <geometry s="105.94050901" x="2804.35255234" y="2619.11396328" hdg="-2.93024903" length="11.17599905">
                <paramPoly3 aU="-0.00000000" bU="8.38199919" cU="8.38199762" dU="-5.58799897" aV="0.00000000" bV="0.00000000" cV="0.00944400" dV="-0.00453765" pRange="normalized"/>
            </geometry>
            <geometry s="117.11650806" x="2793.42625034" y="2616.76473437" hdg="-2.92961970" length="8.55311709">
                <paramPoly3 aU="-0.00000000" bU="6.41483780" cU="6.41483701" dU="-4.27655801" aV="0.00000000" bV="0.00000000" cV="0.00616598" dV="-0.00403894" pRange="normalized"/>
            </geometry>
            <geometry s="125.66962515" x="2785.06501921" y="2614.96317237" hdg="-2.92958616" length="11.17599929">
                <paramPoly3 aU="-0.00000000" bU="8.38199940" cU="8.38200018" dU="-5.58800054" aV="0.00000000" bV="0.00000000" cV="-0.00095691" dV="-0.00088328" pRange="normalized"/>
            </geometry>
            <geometry s="136.84562444" x="2774.13885605" y="2612.61329654" hdg="-2.93013062" length="23.61370528">
                <line/>
            </geometry>
        </planView>
        <elevationProfile>
            <elevation s="0" a="0.00" b="0" c="0" d="0"/>
        </elevationProfile>
        <lateralProfile/>
        <lanes>
            <laneSection s="0">
                <center>
                    <lane id="0" type="none" level="true">
                        <link/>
                        <roadMark sOffset="0" type="solid" weight="standard" color="standard" width="0.13" laneChange="none"/>
                    </lane>
                </center>
                <right>
                    <lane id="-1" type="driving" level="true">
                        <link/>
                        <width sOffset="0" a="3.35" b="0" c="0" d="0"/>
                        <roadMark sOffset="0" type="solid" weight="standard" color="standard" width="0.13" laneChange="none"/>
                        <speed sOffset="0" max="11.18"/>
                    </lane>
                    <lane id="-2" type="sidewalk" level="true">
                        <link/>
                        <width sOffset="0" a="2.80" b="0" c="0" d="0"/>
                        <roadMark sOffset="0" type="solid" weight="standard" color="standard" width="0.13" laneChange="none"/>
                        <speed sOffset="0" max="11.18"/>
                    </lane>
                 </right>
            </laneSection>
        </lanes>
        <objects/>
    </road>
    <road name="7th Avenue" length="49.32967291" id="2467" junction="-1">
        <link>
            <predecessor elementType="junction" elementId="13"/>
            <successor elementType="junction" elementId="14"/>
        </link>
        <type s="0" type="town"/>
        <planView>
            <geometry s="0.00000000" x="1726.65484521" y="3284.92778365" hdg="-0.10317269" length="4.55634805">
                <line/>
            </geometry>
            <geometry s="4.55634805" x="1731.18696451" y="3284.45852653" hdg="-0.10317269" length="13.88999879">
                <paramPoly3 aU="0.00000000" bU="10.41749899" cU="10.41749658" dU="-6.94499826" aV="0.00000000" bV="0.00000000" cV="0.01252330" dV="-0.00641682" pRange="normalized"/>
            </geometry>
            <geometry s="18.44634684" x="1745.00372953" y="3283.03407326" hdg="-0.10261630" length="5.02268214">
                <paramPoly3 aU="0.00000000" bU="3.76697590" cU="3.76742730" dU="-2.51176893" aV="0.00000000" bV="0.00000000" cV="-0.05350032" dV="0.05512202" pRange="normalized"/>
            </geometry>
            <geometry s="23.46902898" x="1750.00010868" y="3282.52118634" hdg="-0.08712171" length="13.88732976">
                <paramPoly3 aU="0.00000000" bU="10.41527706" cU="10.41820967" dU="-6.94665971" aV="0.00000000" bV="0.00000000" cV="-0.04368857" dV="0.11988762" pRange="normalized"/>
            </geometry>
            <geometry s="37.35635874" x="1763.84089738" y="3281.38878217" hdg="-0.06097582" length="11.97331416">
                <line/>
            </geometry>
        </planView>
        <elevationProfile>
            <elevation s="0" a="0.00" b="0" c="0" d="0"/>
        </elevationProfile>
        <lateralProfile/>
        <lanes>
            <laneSection s="0">
                <center>
                    <lane id="0" type="none" level="true">
                        <link/>
                        <roadMark sOffset="0" type="solid" weight="standard" color="standard" width="0.13" laneChange="none"/>
                    </lane>
                </center>
                <right>
                    <lane id="-1" type="driving" level="true">
                        <link/>
                        <width sOffset="0" a="3.35" b="0" c="0" d="0"/>
                        <roadMark sOffset="0" type="solid" weight="standard" color="standard" width="0.13" laneChange="none"/>
                        <speed sOffset="0" max="13.89"/>
                    </lane>
                    <lane id="-2" type="sidewalk" level="true">
                        <link/>
                        <width sOffset="0" a="2.80" b="0" c="0" d="0"/>
                        <roadMark sOffset="0" type="solid" weight="standard" color="standard" width="0.13" laneChange="none"/>
                        <speed sOffset="0" max="13.89"/>
                    </lane>
                 </right>
            </laneSection>
        </lanes>
        <objects/>
    </road>
    <road name="Devotie Drive" length="146.03708135" id="2468" junction="-1">
        <link>
            <predecessor elementType="junction" elementId="15"/>
            <successor elementType="junction" elementId="16"/>
        </link>
        <type s="0" type="town"/>
        <planView>