<?xml version="1.0" encoding="UTF-8"?>
<additional xmlns:xsi="http://www.w3.org/2001/XMLSchema-instance" xsi:noNamespaceSchemaLocation="http://sumo.dlr.de/xsd/additional_file.xsd">
    <poly id="building_0" type="building" color="1.00,0.00,0.00" fill="1" layer="4" shape="333.25,203.47 333.25,196.97 363.25,196.97 363.25,203.47"/>
    <poly id="building_1" type="building" color="1.00,0.00,0.00" fill="1" layer="4" shape="107.03,322.98 107.03,325.15 105.90,325.15 105.90,322.98"/>
    <poly id="building_2" type="building" color="1.00,0.00,0.00" fill="1" layer="4" shape="178.47,316.77 178.47,321.24 176.53,321.24 176.53,316.77"/>
    <poly id="building_3" type="building" color="1.00,0.00,0.00" fill="1" layer="4" shape="261.71,266.00 261.71,268.24 259.76,268.24 259.76,266.00"/>
    <poly id="building_4" type="building" color="1.00,0.00,0.00" fill="1" layer="4" shape="187.12,303.23 187.12,300.99 188.09,300.99 188.09,303.23"/>
    <poly id="building_5" type="building" color="1.00,0.00,0.00" fill="1" layer="4" shape="194.42,303.23 194.42,300.99 195.39,300.99 195.39,303.23"/>
    <poly id="building_6" type="building" color="1.00,0.00,0.00" fill="1" layer="4" shape="167.02,303.23 167.02,300.99 167.99,300.99 167.99,303.23"/>
    <poly id="building_7" type="building" color="1.00,0.00,0.00" fill="1" layer="4" shape="175.02,303.23 175.02,300.99 175.99,300.99 175.99,303.23"/>
    <poly id="building_8" type="building" color="1.00,0.00,0.00" fill="1" layer="4" shape="182.32,303.23 182.32,300.99 183.29,300.99 183.29,303.23"/>
    <poly id="building_9" type="building" color="1.00,0.00,0.00" fill="1" layer="4" shape="172.72,303.23 172.72,300.99 173.69,300.99 173.69,303.23"/>
    <poly id="building_10" type="building" color="1.00,0.00,0.00" fill="1" layer="4" shape="180.72,303.23 180.72,300.99 181.69,300.99 181.69,303.23"/>
    <poly id="building_11" type="building" color="1.00,0.00,0.00" fill="1" layer="4" shape="188.02,303.23 188.02,300.99 188.99,300.99 188.99,303.23"/>
    <poly id="building_12" type="building" color="1.00,0.00,0.00" fill="1" layer="4" shape="179.12,303.23 179.12,300.99 180.09,300.99 180.09,303.23"/>
    <poly id="building_13" type="building" color="1.00,0.00,0.00" fill="1" layer="4" shape="187.12,303.23 187.12,300.99 188.09,300.99 188.09,303.23"/>
    <poly id="building_14" type="building" color="1.00,0.00,0.00" fill="1" layer="4" shape="112.89,322.98 112.89,325.15 111.76,325.15 111.76,322.98"/>
    <poly id="building_15" type="building" color="1.00,0.00,0.00" fill="1" layer="4" shape="194.42,303.23 194.42,300.99 195.39,300.99 195.39,303.23"/>
    <poly id="building_16" type="building" color="1.00,0.00,0.00" fill="1" layer="4" shape="167.02,303.23 167.02,300.99 167.99,300.99 167.99,303.23"/>
    <poly id="building_17" type="building" color="1.00,0.00,0.00" fill="1" layer="4" shape="175.02,303.23 175.02,300.99 175.99,300.99 175.99,303.23"/>
    <poly id="building_18" type="building" color="1.00,0.00,0.00" fill="1" layer="4" shape="182.32,303.23 182.32,300.99 183.29,300.99 183.29,303.23"/>
    <poly id="building_19" type="building" color="1.00,0.00,0.00" fill="1" layer="4" shape="172.72,303.23 172.72,300.99 173.69,300.99 173.69,303.23"/>
    <poly id="building_20" type="building" color="1.00,0.00,0.00" fill="1" layer="4" shape="180.72,303.23 180.72,300.99 181.69,300.99 181.69,303.23"/>
    <poly id="building_21" type="building" color="1.00,0.00,0.00" fill="1" layer="4" shape="188.02,303.23 188.02,300.99 188.99,300.99 188.99,303.23"/>
    <poly id="building_22" type="building" color="1.00,0.00,0.00" fill="1" layer="4" shape="161.81,147.23 173.77,147.23 173.77,152.02 161.81,152.02"/>
    <poly id="building_23" type="building" color="1.00,0.00,0.00" fill="1" layer="4" shape="254.60,266.00 254.60,268.24 252.65,268.24 252.65,266.00"/>
    <poly id="building_24" type="building" color="1.00,0.00,0.00" fill="1" layer="4" shape="110.49,322.98 110.49,325.15 109.37,325.15 109.37,322.98"/>
    <poly id="building_25" type="building" color="1.00,0.00,0.00" fill="1" layer="4" shape="285.35,270.29 285.35,273.64 287.30,273.64 287.30,270.29"/>
    <poly id="building_26" type="building" color="1.00,0.00,0.00" fill="1" layer="4" shape="281.95,270.29 281.95,273.64 283.89,273.64 283.89,270.29"/>
    <poly id="building_27" type="building" color="1.00,0.00,0.00" fill="1" layer="4" shape="268.12,266.00 268.12,268.24 266.17,268.24 266.17,266.00"/>
    <poly id="building_28" type="building" color="1.00,0.00,0.00" fill="1" layer="4" shape="271.39,266.00 271.39,268.24 269.44,268.24 269.44,266.00"/>
    <poly id="building_29" type="building" color="1.00,0.00,0.00" fill="1" layer="4" shape="274.42,266.00 274.42,268.24 272.48,268.24 272.48,266.00"/>
    <poly id="building_30" type="building" color="1.00,0.00,0.00" fill="1" layer="4" shape="281.73,266.00 281.73,268.24 279.78,268.24 279.78,266.00"/>
    <poly id="building_31" type="building" color="1.00,0.00,0.00" fill="1" layer="4" shape="104.64,322.98 104.64,325.15 103.51,325.15 103.51,322.98"/>
    <poly id="building_32" type="building" color="1.00,0.00,0.00" fill="1" layer="4" shape="266.17,270.76 266.17,273.00 268.12,273.00 268.12,270.76"/>
    <poly id="building_33" type="building" color="1.00,0.00,0.00" fill="1" layer="4" shape="269.44,270.76 269.44,273.00 271.39,273.00 271.39,270.76"/>
    <poly id="building_34" type="building" color="1.00,0.00,0.00" fill="1" layer="4" shape="272.48,270.76 272.48,273.00 274.42,273.00 274.42,270.76"/>
    <poly id="building_35" type="building" color="1.00,0.00,0.00" fill="1" layer="4" shape="268.12,254.70 268.12,256.93 266.17,256.93 266.17,254.70"/>
    <poly id="building_36" type="building" color="1.00,0.00,0.00" fill="1" layer="4" shape="271.39,254.70 271.39,256.93 269.44,256.93 269.44,254.70"/>
    <poly id="building_37" type="building" color="1.00,0.00,0.00" fill="1" layer="4" shape="274.42,254.70 274.42,256.93 272.48,256.93 272.48,254.70"/>
    <poly id="building_38" type="building" color="1.00,0.00,0.00" fill="1" layer="4" shape="254.93,254.70 254.93,256.93 252.98,256.93 252.98,254.70"/>
    <poly id="building_39" type="building" color="1.00,0.00,0.00" fill="1" layer="4" shape="258.20,254.70 258.20,256.93 256.26,256.93 256.26,254.70"/>
    <poly id="building_40" type="building" color="1.00,0.00,0.00" fill="1" layer="4" shape="261.23,254.70 261.23,256.93 259.29,256.93 259.29,254.70"/>
    <poly id="building_41" type="building" color="1.00,0.00,0.00" fill="1" layer="4" shape="244.78,254.70 244.78,256.93 242.84,256.93 242.84,254.70"/>
    <poly id="building_42" type="building" color="1.00,0.00,0.00" fill="1" layer="4" shape="257.47,274.85 257.47,278.20 255.52,278.20 255.52,274.85"/>
    <poly id="building_43" type="building" color="1.00,0.00,0.00" fill="1" layer="4" shape="248.05,254.70 248.05,256.93 246.11,256.93 246.11,254.70"/>
    <poly id="building_44" type="building" color="1.00,0.00,0.00" fill="1" layer="4" shape="251.09,254.70 251.09,256.93 249.14,256.93 249.14,254.70"/>
    <poly id="building_45" type="building" color="1.00,0.00,0.00" fill="1" layer="4" shape="252.98,261.45 252.98,263.69 254.93,263.69 254.93,261.45"/>
    <poly id="building_46" type="building" color="1.00,0.00,0.00" fill="1" layer="4" shape="256.26,261.45 256.26,263.69 258.20,263.69 258.20,261.45"/>
    <poly id="building_47" type="building" color="1.00,0.00,0.00" fill="1" layer="4" shape="259.29,261.45 259.29,263.69 261.23,263.69 261.23,261.45"/>
    <poly id="building_48" type="building" color="1.00,0.00,0.00" fill="1" layer="4" shape="242.84,261.45 242.84,263.69 244.78,263.69 244.78,261.45"/>
    <poly id="building_49" type="building" color="1.00,0.00,0.00" fill="1" layer="4" shape="246.11,261.45 246.11,263.69 248.05,263.69 248.05,261.45"/>
    <poly id="building_50" type="building" color="1.00,0.00,0.00" fill="1" layer="4" shape="249.14,261.45 249.14,263.69 251.09,263.69 251.09,261.45"/>
    <poly id="building_51" type="building" color="1.00,0.00,0.00" fill="1" layer="4" shape="236.00,261.45 236.00,263.69 237.94,263.69 237.94,261.45"/>
    <poly id="building_52" type="building" color="1.00,0.00,0.00" fill="1" layer="4" shape="174.07,316.77 174.07,321.24 172.13,321.24 172.13,316.77"/>
    <poly id="building_53" type="building" color="1.00,0.00,0.00" fill="1" layer="4" shape="236.00,270.81 236.00,273.05 237.94,273.05 237.94,270.81"/>
    <poly id="building_54" type="building" color="1.00,0.00,0.00" fill="1" layer="4" shape="242.60,270.81 242.60,273.05 244.55,273.05 244.55,270.81"/>
    <poly id="building_55" type="building" color="1.00,0.00,0.00" fill="1" layer="4" shape="245.88,270.81 245.88,273.05 247.82,273.05 247.82,270.81"/>
    <poly id="building_56" type="building" color="1.00,0.00,0.00" fill="1" layer="4" shape="268.12,275.39 268.12,277.63 266.17,277.63 266.17,275.39"/>
    <poly id="building_57" type="building" color="1.00,0.00,0.00" fill="1" layer="4" shape="271.39,275.39 271.39,277.63 269.44,277.63 269.44,275.39"/>
    <poly id="building_58" type="building" color="1.00,0.00,0.00" fill="1" layer="4" shape="274.42,275.39 274.42,277.63 272.48,277.63 272.48,275.39"/>
    <poly id="building_59" type="building" color="1.00,0.00,0.00" fill="1" layer="4" shape="244.68,275.39 244.68,277.63 242.74,277.63 242.74,275.39"/>
    <poly id="building_60" type="building" color="1.00,0.00,0.00" fill="1" layer="4" shape="330.46,150.47 324.88,150.47 324.88,148.52 330.46,148.52"/>
    <poly id="building_61" type="building" color="1.00,0.00,0.00" fill="1" layer="4" shape="169.74,316.77 169.74,321.24 167.79,321.24 167.79,316.77"/>
    <poly id="building_62" type="building" color="1.00,0.00,0.00" fill="1" layer="4" shape="330.46,156.09 324.88,156.09 324.88,154.15 330.46,154.15"/>
    <poly id="building_63" type="building" color="1.00,0.00,0.00" fill="1" layer="4" shape="329.91,160.54 325.44,160.54 325.44,158.59 329.91,158.59"/>
    <poly id="building_64" type="building" color="1.00,0.00,0.00" fill="1" layer="4" shape="329.91,171.56 325.44,171.56 325.44,169.61 329.91,169.61"/>
    <poly id="building_65" type="building" color="1.00,0.00,0.00" fill="1" layer="4" shape="330.46,177.46 324.88,177.46 324.88,175.51 330.46,175.51"/>
    <poly id="building_66" type="building" color="1.00,0.00,0.00" fill="1" layer="4" shape="330.46,183.24 324.88,183.24 324.88,181.30 330.46,181.30"/>
    <poly id="building_67" type="building" color="1.00,0.00,0.00" fill="1" layer="4" shape="327.61,224.27 323.14,224.27 323.14,222.32 327.61,222.32"/>
    <poly id="building_68" type="building" color="1.00,0.00,0.00" fill="1" layer="4" shape="327.61,228.77 323.14,228.77 323.14,226.82 327.61,226.82"/>
    <poly id="building_69" type="building" color="1.00,0.00,0.00" fill="1" layer="4" shape="327.61,233.39 323.14,233.39 323.14,231.45 327.61,231.45"/>
    <poly id="building_70" type="building" color="1.00,0.00,0.00" fill="1" layer="4" shape="327.61,246.28 323.14,246.28 323.14,244.33 327.61,244.33"/>
    <poly id="building_71" type="building" color="1.00,0.00,0.00" fill="1" layer="4" shape="327.61,250.78 323.14,250.78 323.14,248.83 327.61,248.83"/>
    <poly id="building_72" type="building" color="1.00,0.00,0.00" fill="1" layer="4" shape="327.61,255.40 323.14,255.40 323.14,253.46 327.61,253.46"/>
    <poly id="building_73" type="building" color="1.00,0.00,0.00" fill="1" layer="4" shape="345.20,148.32 339.61,148.32 339.61,150.27 345.20,150.27"/>
    <poly id="building_74" type="building" color="1.00,0.00,0.00" fill="1" layer="4" shape="345.20,153.95 339.61,153.95 339.61,155.89 345.20,155.89"/>
    <poly id="building_75" type="building" color="1.00,0.00,0.00" fill="1" layer="4" shape="344.64,158.49 340.17,158.49 340.17,160.44 344.64,160.44"/>
    <poly id="building_76" type="building" color="1.00,0.00,0.00" fill="1" layer="4" shape="345.76,171.83 339.06,171.83 339.06,173.77 345.76,173.77"/>
    <poly id="building_77" type="building" color="1.00,0.00,0.00" fill="1" layer="4" shape="344.64,176.21 340.17,176.21 340.17,178.16 344.64,178.16"/>
    <poly id="building_78" type="building" color="1.00,0.00,0.00" fill="1" layer="4" shape="344.64,180.64 340.17,180.64 340.17,182.58 344.64,182.58"/>
    <poly id="building_79" type="building" color="1.00,0.00,0.00" fill="1" layer="4" shape="342.24,222.32 337.77,222.32 337.77,224.27 342.24,224.27"/>
    <poly id="building_80" type="building" color="1.00,0.00,0.00" fill="1" layer="4" shape="342.24,226.82 337.77,226.82 337.77,228.77 342.24,228.77"/>
    <poly id="building_81" type="building" color="1.00,0.00,0.00" fill="1" layer="4" shape="342.24,231.45 337.77,231.45 337.77,233.39 342.24,233.39"/>
    <poly id="building_82" type="building" color="1.00,0.00,0.00" fill="1" layer="4" shape="174.89,304.94 174.89,300.48 176.84,300.48 176.84,304.94"/>
    <poly id="building_83" type="building" color="1.00,0.00,0.00" fill="1" layer="4" shape="179.12,303.23 179.12,300.99 180.09,300.99 180.09,303.23"/>
    <poly id="building_84" type="building" color="1.00,0.00,0.00" fill="1" layer="4" shape="342.24,244.33 337.77,244.33 337.77,246.28 342.24,246.28"/>
    <poly id="building_85" type="building" color="1.00,0.00,0.00" fill="1" layer="4" shape="342.24,248.83 337.77,248.83 337.77,250.78 342.24,250.78"/>
    <poly id="building_86" type="building" color="1.00,0.00,0.00" fill="1" layer="4" shape="342.24,253.46 337.77,253.46 337.77,255.40 342.24,255.40"/>
    <poly id="building_87" type="building" color="1.00,0.00,0.00" fill="1" layer="4" shape="165.83,134.94 168.01,134.94 168.01,136.06 165.83,136.06"/>
    <poly id="building_88" type="building" color="1.00,0.00,0.00" fill="1" layer="4" shape="165.83,136.80 168.01,136.80 168.01,137.93 165.83,137.93"/>
    <poly id="building_89" type="building" color="1.00,0.00,0.00" fill="1" layer="4" shape="165.83,138.55 168.01,138.55 168.01,139.68 165.83,139.68"/>
    <poly id="building_90" type="building" color="1.00,0.00,0.00" fill="1" layer="4" shape="172.38,136.59 172.38,134.42 173.51,134.42 173.51,136.59"/>
    <poly id="building_91" type="building" color="1.00,0.00,0.00" fill="1" layer="4" shape="170.51,136.59 170.51,134.42 171.64,134.42 171.64,136.59"/>
    <poly id="building_92" type="building" color="1.00,0.00,0.00" fill="1" layer="4" shape="168.44,136.59 168.44,134.42 169.56,134.42 169.56,136.59"/>
    <poly id="building_93" type="building" color="1.00,0.00,0.00" fill="1" layer="4" shape="173.51,142.40 173.51,140.23 172.38,140.23 172.38,142.40"/>
    <poly id="building_94" type="building" color="1.00,0.00,0.00" fill="1" layer="4" shape="200.24,304.94 200.24,300.48 202.19,300.48 202.19,304.94"/>
    <poly id="building_95" type="building" color="1.00,0.00,0.00" fill="1" layer="4" shape="171.64,142.40 171.64,140.23 170.51,140.23 170.51,142.40"/>
    <poly id="building_96" type="building" color="1.00,0.00,0.00" fill="1" layer="4" shape="169.56,142.40 169.56,140.23 168.44,140.23 168.44,142.40"/>
    <poly id="building_97" type="building" color="1.00,0.00,0.00" fill="1" layer="4" shape="165.83,169.88 168.01,169.88 168.01,171.01 165.83,171.01"/>
    <poly id="building_98" type="building" color="1.00,0.00,0.00" fill="1" layer="4" shape="165.83,171.74 168.01,171.74 168.01,172.87 165.83,172.87"/>
    <poly id="building_99" type="building" color="1.00,0.00,0.00" fill="1" layer="4" shape="165.83,173.50 168.01,173.50 168.01,174.62 165.83,174.62"/>
    <poly id="building_100" type="building" color="1.00,0.00,0.00" fill="1" layer="4" shape="172.38,171.53 172.38,169.36 173.51,169.36 173.51,171.53"/>
    <poly id="building_101" type="building" color="1.00,0.00,0.00" fill="1" layer="4" shape="170.51,171.53 170.51,169.36 171.64,169.36 171.64,171.53"/>
    <poly id="building_102" type="building" color="1.00,0.00,0.00" fill="1" layer="4" shape="168.44,171.53 168.44,169.36 169.56,169.36 169.56,171.53"/>
    <poly id="building_103" type="building" color="1.00,0.00,0.00" fill="1" layer="4" shape="173.51,177.34 173.51,175.17 172.38,175.17 172.38,177.34"/>
    <poly id="building_104" type="building" color="1.00,0.00,0.00" fill="1" layer="4" shape="171.64,177.34 171.64,175.17 170.51,175.17 170.51,177.34"/>
    <poly id="building_105" type="building" color="1.00,0.00,0.00" fill="1" layer="4" shape="102.27,322.98 102.27,325.15 101.14,325.15 101.14,322.98"/>
    <poly id="building_106" type="building" color="1.00,0.00,0.00" fill="1" layer="4" shape="169.56,177.34 169.56,175.17 168.44,175.17 168.44,177.34"/>
    <poly id="building_107" type="building" color="1.00,0.00,0.00" fill="1" layer="4" shape="202.88,77.79 198.41,77.79 198.41,75.84 202.88,75.84"/>
    <poly id="building_108" type="building" color="1.00,0.00,0.00" fill="1" layer="4" shape="202.88,82.39 198.41,82.39 198.41,80.45 202.88,80.45"/>
    <poly id="building_109" type="building" color="1.00,0.00,0.00" fill="1" layer="4" shape="202.88,87.18 198.41,87.18 198.41,85.23 202.88,85.23"/>
    <poly id="building_110" type="building" color="1.00,0.00,0.00" fill="1" layer="4" shape="202.88,96.08 198.41,96.08 198.41,94.13 202.88,94.13"/>
    <poly id="building_111" type="building" color="1.00,0.00,0.00" fill="1" layer="4" shape="186.54,94.85 186.54,97.57 185.41,97.57 185.41,94.85"/>
    <poly id="building_112" type="building" color="1.00,0.00,0.00" fill="1" layer="4" shape="183.77,94.85 183.77,97.57 182.64,97.57 182.64,94.85"/>
    <poly id="building_113" type="building" color="1.00,0.00,0.00" fill="1" layer="4" shape="181.00,94.85 181.00,97.57 179.87,97.57 179.87,94.85"/>
    <poly id="building_114" type="building" color="1.00,0.00,0.00" fill="1" layer="4" shape="178.28,94.85 178.28,97.57 177.15,97.57 177.15,94.85"/>
    <poly id="building_115" type="building" color="1.00,0.00,0.00" fill="1" layer="4" shape="175.52,94.85 175.52,97.57 174.39,97.57 174.39,94.85"/>
    <poly id="building_116" type="building" color="1.00,0.00,0.00" fill="1" layer="4" shape="200.10,310.42 200.10,302.00 208.70,302.00 208.70,310.42"/>
    <poly id="building_117" type="building" color="1.00,0.00,0.00" fill="1" layer="4" shape="123.88,312.24 123.88,304.58 133.72,304.58 133.72,312.24"/>
    <poly id="building_118" type="building" color="1.00,0.00,0.00" fill="1" layer="4" shape="208.67,318.87 208.67,310.44 200.08,310.44 200.08,318.87"/>
    <poly id="building_119" type="building" color="1.00,0.00,0.00" fill="1" layer="4" shape="165.46,310.43 165.46,318.85 156.87,318.85 156.87,310.43"/>
    <poly id="building_120" type="building" color="1.00,0.00,0.00" fill="1" layer="4" shape="172.09,310.44 172.09,318.87 163.49,318.87 163.49,310.44"/>
    <poly id="building_121" type="building" color="1.00,0.00,0.00" fill="1" layer="4" shape="178.79,310.43 178.79,318.86 170.19,318.86 170.19,310.43"/>
    <poly id="building_122" type="building" color="1.00,0.00,0.00" fill="1" layer="4" shape="185.49,310.44 185.49,318.87 176.89,318.87 176.89,310.44"/>
    <poly id="building_123" type="building" color="1.00,0.00,0.00" fill="1" layer="4" shape="192.19,310.48 192.19,318.90 183.59,318.90 183.59,310.48"/>
    <poly id="building_124" type="building" color="1.00,0.00,0.00" fill="1" layer="4" shape="133.72,320.44 133.72,312.78 123.88,312.78 123.88,320.44"/>
    <poly id="building_125" type="building" color="1.00,0.00,0.00" fill="1" layer="4" shape="109.74,296.15 117.40,296.15 117.40,306.00 109.74,306.00"/>
    <poly id="building_126" type="building" color="1.00,0.00,0.00" fill="1" layer="4" shape="117.94,306.00 125.60,306.00 125.60,296.15 117.94,296.15"/>
    <poly id="building_127" type="building" color="1.00,0.00,0.00" fill="1" layer="4" shape="100.77,296.17 108.43,296.17 108.43,306.01 100.77,306.01"/>
    <poly id="building_128" type="building" color="1.00,0.00,0.00" fill="1" layer="4" shape="117.40,318.91 109.74,318.91 109.74,328.76 117.40,328.76"/>
    <poly id="building_129" type="building" color="1.00,0.00,0.00" fill="1" layer="4" shape="125.60,328.76 117.94,328.76 117.94,318.91 125.60,318.91"/>
    <poly id="building_130" type="building" color="1.00,0.00,0.00" fill="1" layer="4" shape="108.40,318.91 100.74,318.91 100.74,328.76 108.40,328.76"/>
    <poly id="building_131" type="building" color="1.00,0.00,0.00" fill="1" layer="4" shape="92.52,304.58 92.52,312.24 102.36,312.24 102.36,304.58"/>
    <poly id="building_132" type="building" color="1.00,0.00,0.00" fill="1" layer="4" shape="102.36,312.78 102.36,320.44 92.52,320.44 92.52,312.78"/>
    <poly id="building_133" type="building" color="1.00,0.00,0.00" fill="1" layer="4" shape="200.01,310.48 200.01,302.06 208.61,302.06 208.61,310.48"/>
    <poly id="building_134" type="building" color="1.00,0.00,0.00" fill="1" layer="4" shape="156.89,302.06 156.89,310.48 165.49,310.48 165.49,302.06"/>
    <poly id="building_135" type="building" color="1.00,0.00,0.00" fill="1" layer="4" shape="163.49,302.06 163.49,310.48 172.09,310.48 172.09,302.06"/>
    <poly id="building_136" type="building" color="1.00,0.00,0.00" fill="1" layer="4" shape="170.19,302.06 170.19,310.48 178.79,310.48 178.79,302.06"/>
    <poly id="building_137" type="building" color="1.00,0.00,0.00" fill="1" layer="4" shape="176.89,302.06 176.89,310.48 185.49,310.48 185.49,302.06"/>
    <poly id="building_138" type="building" color="1.00,0.00,0.00" fill="1" layer="4" shape="183.59,302.06 183.59,310.48 192.19,310.48 192.19,302.06"/>
    <poly id="building_139" type="building" color="1.00,0.00,0.00" fill="1" layer="4" shape="208.61,318.86 208.61,310.44 200.01,310.44 200.01,318.86"/>
    <poly id="building_140" type="building" color="1.00,0.00,0.00" fill="1" layer="4" shape="165.49,310.41 165.49,318.83 156.89,318.83 156.89,310.41"/>
    <poly id="building_141" type="building" color="1.00,0.00,0.00" fill="1" layer="4" shape="172.09,310.41 172.09,318.83 163.49,318.83 163.49,310.41"/>
    <poly id="building_142" type="building" color="1.00,0.00,0.00" fill="1" layer="4" shape="178.79,310.41 178.79,318.83 170.19,318.83 170.19,310.41"/>
    <poly id="building_143" type="building" color="1.00,0.00,0.00" fill="1" layer="4" shape="185.49,310.41 185.49,318.83 176.89,318.83 176.89,310.41"/>
    <poly id="building_144" type="building" color="1.00,0.00,0.00" fill="1" layer="4" shape="192.19,310.41 192.19,318.83 183.59,318.83 183.59,310.41"/>
    <poly id="building_145" type="building" color="1.00,0.00,0.00" fill="1" layer="4" shape="123.91,312.25 123.91,304.59 133.75,304.59 133.75,312.25"/>
    <poly id="building_146" type="building" color="1.00,0.00,0.00" fill="1" layer="4" shape="133.75,320.45 133.75,312.79 123.91,312.79 123.91,320.45"/>
    <poly id="building_147" type="building" color="1.00,0.00,0.00" fill="1" layer="4" shape="109.77,296.17 117.43,296.17 117.43,306.01 109.77,306.01"/>
    <poly id="building_148" type="building" color="1.00,0.00,0.00" fill="1" layer="4" shape="117.97,306.01 125.63,306.01 125.63,296.17 117.97,296.17"/>
    <poly id="building_149" type="building" color="1.00,0.00,0.00" fill="1" layer="4" shape="117.43,318.93 109.77,318.93 109.77,328.77 117.43,328.77"/>
    <poly id="building_150" type="building" color="1.00,0.00,0.00" fill="1" layer="4" shape="125.63,328.77 117.97,328.77 117.97,318.93 125.63,318.93"/>
    <poly id="building_151" type="building" color="1.00,0.00,0.00" fill="1" layer="4" shape="108.43,318.93 100.77,318.93 100.77,328.77 108.43,328.77"/>
    <poly id="building_152" type="building" color="1.00,0.00,0.00" fill="1" layer="4" shape="92.55,304.59 92.55,312.25 102.39,312.25 102.39,304.59"/>
    <poly id="building_153" type="building" color="1.00,0.00,0.00" fill="1" layer="4" shape="102.39,312.79 102.39,320.45 92.55,320.45 92.55,312.79"/>
    <poly id="building_154" type="building" color="1.00,0.00,0.00" fill="1" layer="4" shape="100.87,296.27 108.53,296.27 108.53,306.11 100.87,306.11"/>
    <poly id="building_155" type="building" color="1.00,0.00,0.00" fill="1" layer="4" shape="156.85,301.96 156.85,310.39 165.44,310.39 165.44,301.96"/>
    <poly id="building_156" type="building" color="1.00,0.00,0.00" fill="1" layer="4" shape="163.49,302.00 163.49,310.42 172.09,310.42 172.09,302.00"/>
    <poly id="building_157" type="building" color="1.00,0.00,0.00" fill="1" layer="4" shape="170.19,301.96 170.19,310.39 178.79,310.39 178.79,301.96"/>
    <poly id="building_158" type="building" color="1.00,0.00,0.00" fill="1" layer="4" shape="176.89,302.00 176.89,310.42 185.49,310.42 185.49,302.00"/>
    <poly id="building_159" type="building" color="1.00,0.00,0.00" fill="1" layer="4" shape="183.59,301.96 183.59,310.39 192.19,310.39 192.19,301.96"/>
    <poly id="building_160" type="building" color="1.00,0.00,0.00" fill="1" layer="4" shape="191.50,255.52 191.50,207.48 227.64,207.48 227.64,255.52"/>
    <poly id="building_161" type="building" color="1.00,0.00,0.00" fill="1" layer="4" shape="167.04,141.08 167.04,140.83 167.29,140.83 167.29,141.08"/>
    <poly id="building_162" type="building" color="1.00,0.00,0.00" fill="1" layer="4" shape="167.04,135.86 167.04,135.61 167.29,135.61 167.29,135.86"/>
    <poly id="building_163" type="building" color="1.00,0.00,0.00" fill="1" layer="4" shape="167.04,176.01 167.04,175.76 167.29,175.76 167.29,176.01"/>
    <poly id="building_164" type="building" color="1.00,0.00,0.00" fill="1" layer="4" shape="167.04,170.78 167.04,170.53 167.29,170.53 167.29,170.78"/>
    <poly id="building_165" type="building" color="1.00,0.00,0.00" fill="1" layer="4" shape="191.92,256.02 191.92,208.02 228.42,208.02 228.42,256.02"/>
    <poly id="building_166" type="building" color="1.00,0.00,0.00" fill="1" layer="4" shape="191.92,256.02 191.92,208.02 228.42,208.02 228.42,256.02"/>
    <poly id="building_167" type="building" color="1.00,0.00,0.00" fill="1" layer="4" shape="191.92,256.02 191.92,208.02 228.42,208.02 228.42,256.02"/>
    <poly id="building_168" type="building" color="1.00,0.00,0.00" fill="1" layer="4" shape="191.92,256.02 191.92,208.02 228.42,208.02 228.42,256.02"/>
    <poly id="building_169" type="building" color="1.00,0.00,0.00" fill="1" layer="4" shape="191.92,256.02 191.92,208.02 228.42,208.02 228.42,256.02"/>
    <poly id="building_170" type="building" color="1.00,0.00,0.00" fill="1" layer="4" shape="191.92,256.02 191.92,208.02 228.42,208.02 228.42,256.02"/>
    <poly id="building_171" type="building" color="1.00,0.00,0.00" fill="1" layer="4" shape="191.92,256.02 191.92,208.02 228.42,208.02 228.42,256.02"/>
    <poly id="building_172" type="building" color="1.00,0.00,0.00" fill="1" layer="4" shape="191.92,256.02 191.92,208.02 228.42,208.02 228.42,256.02"/>
    <poly id="building_173" type="building" color="1.00,0.00,0.00" fill="1" layer="4" shape="189.96,256.59 189.96,205.70 228.70,205.70 228.70,256.59"/>
    <poly id="building_174" type="building" color="1.00,0.00,0.00" fill="1" layer="4" shape="200.17,256.02 200.17,208.02 220.17,208.02 220.17,256.02"/>
    <poly id="building_175" type="building" color="1.00,0.00,0.00" fill="1" layer="4" shape="200.17,256.02 200.17,208.02 220.17,208.02 220.17,256.02"/>
    <poly id="building_176" type="building" color="1.00,0.00,0.00" fill="1" layer="4" shape="183.67,96.06 183.67,80.96 196.81,80.96 196.81,96.06"/>
    <poly id="building_177" type="building" color="1.00,0.00,0.00" fill="1" layer="4" shape="168.84,140.91 168.84,135.91 174.84,135.91 174.84,140.91"/>
    <poly id="building_178" type="building" color="1.00,0.00,0.00" fill="1" layer="4" shape="168.84,175.84 168.84,170.84 174.84,170.84 174.84,175.84"/>
    <poly id="building_179" type="building" color="1.00,0.00,0.00" fill="1" layer="4" shape="325.21,381.05 319.30,381.05 319.30,373.79 325.21,373.79"/>
    <poly id="building_180" type="building" color="1.00,0.00,0.00" fill="1" layer="4" shape="325.21,375.15 319.30,375.15 319.30,367.90 325.21,367.90"/>
    <poly id="building_181" type="building" color="1.00,0.00,0.00" fill="1" layer="4" shape="325.21,368.54 319.30,368.54 319.30,361.29 325.21,361.29"/>
    <poly id="building_182" type="building" color="1.00,0.00,0.00" fill="1" layer="4" shape="335.82,355.38 341.72,355.38 341.72,362.64 335.82,362.64"/>
    <poly id="building_183" type="building" color="1.00,0.00,0.00" fill="1" layer="4" shape="335.82,361.28 341.72,361.28 341.72,368.53 335.82,368.53"/>
    <poly id="building_184" type="building" color="1.00,0.00,0.00" fill="1" layer="4" shape="335.82,367.59 341.72,367.59 341.72,374.85 335.82,374.85"/>
    <poly id="building_185" type="building" color="1.00,0.00,0.00" fill="1" layer="4" shape="208.81,256.77 208.81,254.03 211.12,254.03 211.12,256.77"/>
    <poly id="building_186" type="building" color="1.00,0.00,0.00" fill="1" layer="4" shape="208.81,267.79 208.81,265.05 211.12,265.05 211.12,267.79"/>
    <poly id="building_187" type="building" color="1.00,0.00,0.00" fill="1" layer="4" shape="160.32,267.79 160.32,265.05 162.63,265.05 162.63,267.79"/>
    <poly id="building_188" type="building" color="1.00,0.00,0.00" fill="1" layer="4" shape="160.61,307.65 163.36,307.65 163.36,309.96 160.61,309.96"/>
    <poly id="building_189" type="building" color="1.00,0.00,0.00" fill="1" layer="4" shape="126.79,241.00 129.53,241.00 129.53,243.32 126.79,243.32"/>
    <poly id="building_190" type="building" color="1.00,0.00,0.00" fill="1" layer="4" shape="159.69,256.94 159.69,254.20 162.00,254.20 162.00,256.94"/>
    <poly id="building_191" type="building" color="1.00,0.00,0.00" fill="1" layer="4" shape="134.27,158.72 134.27,143.63 147.42,143.63 147.42,158.72"/>
    <poly id="building_192" type="building" color="1.00,0.00,0.00" fill="1" layer="4" shape="89.00,148.08 89.00,163.17 75.86,163.17 75.86,148.08"/>
    <poly id="building_193" type="building" color="1.00,0.00,0.00" fill="1" layer="4" shape="287.69,252.62 287.69,257.13 284.65,257.13 284.65,252.62"/>
    <poly id="building_194" type="building" color="1.00,0.00,0.00" fill="1" layer="4" shape="192.36,329.00 187.85,329.00 187.85,325.96 192.36,325.96"/>
    <poly id="building_195" type="building" color="1.00,0.00,0.00" fill="1" layer="4" shape="332.07,248.53 332.07,207.02 377.52,207.02 377.52,248.53"/>
    <poly id="building_196" type="building" color="1.00,0.00,0.00" fill="1" layer="4" shape="335.83,151.31 335.83,192.81 290.37,192.81 290.37,151.31"/>